*Heading
** Job name: Analysis-SolidSolid-It2 Model name: Iteration 2
** Generated by: Abaqus/CAE 2019
*Preprint, echo=NO, model=NO, history=NO, contact=NO
**
** PARTS
**
*Part, name=LARCH
*Node
      1,           0.,         780.,        482.5
      2,           0.,         780.,        462.5
      3,           0.,         760.,        462.5
      4,           0.,         760.,        447.5
      5,           0.,         720.,        447.5
      6,           0.,         700.,        462.5
      7,           0.,         700.,        482.5
      8,           0.,         720.,        497.5
      9,           0.,         760.,        497.5
     10,           0.,         760.,        482.5
     11,           0.,    728.37616,   467.871399
     12,           0.,     734.3125,   482.009216
     13,   30.3486595,    767.17627,        482.5
     14,   30.3472881,   767.175964,        462.5
     15,   29.0956478,   747.640442,        462.5
     16,   29.0956478,   747.640442,        447.5
     17,   26.6103058,   708.579529,        447.5
     18,   25.3650951,   689.049805,        462.5
     19,   25.3650951,   689.049805,        482.5
     20,   26.6103058,   708.579529,        497.5
** ... 256 like lines cut
*Element, type=C3D8R
  1,   3,   2,   1,  10,  15,  14,  13,  22
  2,   7,   6,   5,  11,  19,  18,  17,  23
  3,   7,  11,  12,   8,  19,  23,  24,  20
  4,   3,  11,   5,   4,  15,  23,  17,  16
  5,   3,  10,  12,  11,  15,  22,  24,  23
  6,   8,  12,  10,   9,  20,  24,  22,  21
  7,  15,  14,  13,  22,  27,  26,  25,  34
  8,  19,  18,  17,  23,  31,  30,  29,  35
  9,  19,  23,  24,  20,  31,  35,  36,  32
 10,  15,  23,  17,  16,  27,  35,  29,  28
 11,  15,  22,  24,  23,  27,  34,  36,  35
 12,  20,  24,  22,  21,  32,  36,  34,  33
 13,  27,  26,  25,  34,  39,  38,  37,  46
 14,  31,  30,  29,  35,  43,  42,  41,  47
 15,  31,  35,  36,  32,  43,  47,  48,  44
 16,  27,  35,  29,  28,  39,  47,  41,  40
 17,  27,  34,  36,  35,  39,  46,  48,  47
 18,  32,  36,  34,  33,  44,  48,  46,  45
 19,  39,  38,  37,  46,  51,  50,  49,  58
 20,  43,  42,  41,  47,  55,  54,  53,  59
** ... 112 like lines cut
*Node
    277,           0.,           0.,           0.
*Nset, nset=LARCH-RefPt_, internal
277, 
*Nset, nset=_PickedSet41, internal, generate
   1,  276,    1
*Elset, elset=_PickedSet41, internal, generate
   1,  132,    1
** Section: RIB/ARCH
*Solid Section, elset=_PickedSet41, material=RIB/ARCH
,
*End Part
**  
*Part, name=LFILL
*Node
      1,        637.5,           0.,         463.
      2,        637.5,           0.,        497.5
      3,   581.294983,           0.,        497.5
      4,   565.732056,           0.,   436.359528
      5,        637.5,   148.075073,   457.494965
      6,        637.5,        147.5,        497.5
      7,   568.904785,   149.000336,        497.5
      8,   551.702759,   150.077255,   427.817413
      9,   525.090027,           0.,        497.5
     10,   515.090027,           0.,         490.
     11,   500.702087,   150.721024,        497.5
     12,   490.859314,   150.782013,   489.999939
     13,   505.089996,           0.,        482.5
     14,   505.089996,           0.,   469.166656
     15,   481.013153,   150.858032,        482.5
     16,   481.060089,   150.857498,   469.166687
     17,   505.089996,           0.,        462.5
     18,   514.276672,           0.,   449.473328
     19,   481.070129,   150.872055,        462.5
     20,   488.807892,   151.312927,   442.051239
** ... 332 like lines cut
*Element, type=C3D8R
  1,  66,  74, 250, 246,   1,   2,  58,  59
  2, 246, 250,  73,  65,  59,  58,   3,   4
  3,  67,  75, 251, 247,  66,  74, 250, 246
  4, 247, 251,  72,  64, 246, 250,  73,  65
  5,  68,  76, 252, 248,  67,  75, 251, 247
  6, 248, 252,  71,  63, 247, 251,  72,  64
  7,  69,  77, 253, 249,  68,  76, 252, 248
  8, 249, 253,  70,  62, 248, 252,  71,  63
  9,   5,   6,  60,  61,  69,  77, 253, 249
 10,  61,  60,   7,   8, 249, 253,  70,  62
 11,  73, 254, 258,  65,   3,  78,  79,   4
 12, 254,  86,  85, 258,  78,   9,  10,  79
 13,  72, 255, 259,  64,  73, 254, 258,  65
 14, 255,  87,  84, 259, 254,  86,  85, 258
 15,  71, 256, 260,  63,  72, 255, 259,  64
 16, 256,  88,  83, 260, 255,  87,  84, 259
 17,  70, 257, 261,  62,  71, 256, 260,  63
 18, 257,  89,  82, 261, 256,  88,  83, 260
 19,   7,  80,  81,   8,  70, 257, 261,  62
 20,  80,  11,  12,  81, 257,  89,  82, 261
** ... 160 like lines cut
*Node
    353,           0.,           0.,           0.
*Nset, nset=LFILL-RefPt_, internal
353, 
*Nset, nset=_PickedSet68, internal, generate
   1,  352,    1
*Elset, elset=_PickedSet68, internal, generate
   1,  180,    1
** Section: FILL
*Solid Section, elset=_PickedSet68, material=FILL
,
*End Part
**  
*Part, name=LWEB
*Node
      1,           0.,         760.,        462.5
      2,           0.,        777.5,        462.5
      3,           0.,         795.,        462.5
      4,           0.,   759.866638,   425.010834
      5,           0.,   777.366638,   425.010834
      6,           0.,   794.866638,   425.010834
      7,           0.,   759.733337,   387.521667
      8,           0.,   777.233337,   387.521667
      9,           0.,   794.733337,   387.521667
     10,           0.,   759.599976,   350.032501
     11,           0.,   777.099976,   350.032501
     12,           0.,   794.599976,   350.032501
     13,           0.,   759.466675,   312.543335
     14,           0.,   776.966675,   312.543335
     15,           0.,   794.466675,   312.543335
     16,           0.,   759.333313,   275.054169
     17,           0.,   776.833313,   275.054169
     18,           0.,   794.333313,   275.054169
     19,           0.,   759.200012,   237.565002
     20,           0.,   776.700012,   237.565002
** ... 1501 like lines cut
*Element, type=C3D8R
  1,   40,   41,   44,   43,    1,    2,    5,    4
  2,   41,   42,   45,   44,    2,    3,    6,    5
  3,   43,   44,   47,   46,    4,    5,    8,    7
  4,   44,   45,   48,   47,    5,    6,    9,    8
  5,   46,   47,   50,   49,    7,    8,   11,   10
  6,   47,   48,   51,   50,    8,    9,   12,   11
  7,   49,   50,   53,   52,   10,   11,   14,   13
  8,   50,   51,   54,   53,   11,   12,   15,   14
  9,   52,   53,   56,   55,   13,   14,   17,   16
 10,   53,   54,   57,   56,   14,   15,   18,   17
 11,   55,   56,   59,   58,   16,   17,   20,   19
 12,   56,   57,   60,   59,   17,   18,   21,   20
 13,   58,   59,   62,   61,   19,   20,   23,   22
 14,   59,   60,   63,   62,   20,   21,   24,   23
 15,   61,   62,   65,   64,   22,   23,   26,   25
 16,   62,   63,   66,   65,   23,   24,   27,   26
 17,   64,   65,   68,   67,   25,   26,   29,   28
 18,   65,   66,   69,   68,   26,   27,   30,   29
 19,   67,   68,   71,   70,   28,   29,   32,   31
 20,   68,   69,   72,   71,   29,   30,   33,   32
** ... 892 like lines cut
*Node
   1522,           0.,           0.,           0.
*Nset, nset=LWEB-RefPt_, internal
1522, 
*Nset, nset=_PickedSet61, internal, generate
    1,  1521,     1
*Elset, elset=_PickedSet61, internal, generate
   1,  912,    1
*Nset, nset=_PickedSet64, internal, generate
    3,  1485,    39
*Elset, elset=_PickedSet64, internal, generate
   2,  890,   24
*Elset, elset=__PickedSurf63_S4, internal, generate
   2,  912,    2
*Surface, type=ELEMENT, name=_PickedSurf63, internal
__PickedSurf63_S4, S4
*Distribution, name=Ori-1-DiscOrient, location=ELEMENT, Table=Ori-1-DiscOrient_Table
** Description: Distribution generated from Discrete Orientation
,           1.,           0.,           0.,           0.,           1.,           0.
1, -0.00758085353299975, -0.01931481808424, 0.999784708023071, 0.925562739372253, -0.378594249486923, -0.000295986683340743
2, -0.00756053579971194, -0.0193231273442507, 0.999784708023071, 0.925562858581543, -0.378593802452087, -0.000317933590849862
3, -0.00117087387479842, -0.00298321177251637, 0.999994874000549, 0.938871026039124, -0.344269156455994, 7.22721306374297e-05
4, -0.00116768840234727, -0.00298437965102494, 0.999994814395905, 0.938870966434479, -0.344269126653671, 6.88793516019359e-05
5, 0.00123444898054004, 0.00314519996754825, 0.999994277954102, 0.948723316192627, -0.316107660531998, -0.000176929897861555
6, 0.00123104953672737, 0.00314633245579898, 0.999994277954102, 0.948723316192627, -0.316107630729675, -0.000173346590599976
7, 0.00123444688506424, 0.00314520020037889, 0.999994218349457, 0.948723256587982, -0.316107600927353, -0.000176927758730017
8, 0.0012310448801145, 0.00314633408561349, 0.999994277954102, 0.948723375797272, -0.316107660531998, -0.000173341832123697
9, 0.0012344456044957, 0.00314520089887083, 0.999994218349457, 0.948723256587982, -0.316107630729675, -0.000176926361746155
10, 0.00123104080557823, 0.00314633548259735, 0.999994337558746, 0.948723316192627, -0.316107630729675, -0.000173337510204874
11, 0.00123444478958845, 0.00314520113170147, 0.999994218349457, 0.948723256587982, -0.316107630729675, -0.000176925444975495
12, 0.00123103708028793, 0.00314633664675057, 0.999994277954102, 0.948723375797272, -0.316107660531998, -0.000173333566635847
13, 0.00123444420751184, 0.00314520136453211, 0.999994277954102, 0.948723256587982, -0.316107630729675, -0.00017692479013931
14, 0.00123103358782828, 0.00314633804373443, 0.999994337558746, 0.948723316192627, -0.316107630729675, -0.000173329783137888
15, 0.00123444350901991, 0.00314520159736276, 0.999994277954102, 0.948723316192627, -0.316107630729675, -0.00017692412075121
16, 0.00123102986253798, 0.00314633897505701, 0.999994277954102, 0.948723375797272, -0.316107630729675, -0.000173325985088013
17, 0.00123444269411266, 0.00314520206302404, 0.999994277954102, 0.948723316192627, -0.316107630729675, -0.000176923233084381
18, 0.001231026253663, 0.00314634037204087, 0.999994337558746, 0.948723316192627, -0.316107630729675, -0.000173322026967071
19, 0.00123444141354412, 0.00314520252868533, 0.999994277954102, 0.948723316192627, -0.316107630729675, -0.000176921836100519
20, 0.0012310219462961, 0.00314634153619409, 0.999994277954102, 0.948723375797272, -0.316107660531998, -0.000173317705048248
** ... 892 like lines cut
*Orientation, name=Ori-1, system=RECTANGULAR
Ori-1-DiscOrient
1, 0.
** Section: WEB
*Solid Section, elset=_PickedSet61, orientation=Ori-1, material=WEB
,
*End Part
**  
*Part, name=NARCH
*Node
      1,           0.,    805.77002,  -481.970001
      2,           0.,    805.77002,  -646.969971
      3,           0.,    625.77002,  -526.969971
      4,           0.,    625.77002,  -501.970001
      5,           0.,    640.77002,  -501.970001
      6,           0.,    640.77002,  -481.970001
      7,           0.,    805.77002,  -523.219971
      8,           0.,    805.77002,  -564.469971
      9,           0.,    805.77002,  -605.719971
     10,           0.,    769.77002,  -622.969971
     11,           0.,    733.77002,  -598.969971
     12,           0.,    697.77002,  -574.969971
     13,           0.,    661.77002,  -550.969971
     14,           0.,    682.02002,  -481.970001
     15,           0.,    723.27002,  -481.970001
     16,           0.,    764.52002,  -481.970001
     17,           0.,   673.262939,  -535.130798
     18,           0.,   776.470459,  -556.392151
     19,           0.,   774.138367,  -590.671448
     20,           0.,   705.579041,  -537.138489
** ... 580 like lines cut
*Element, type=C3D8R
  1,  14,  20,  21,  15,  39,  45,  46,  40
  2,   9,   8,  18,  19,  34,  33,  43,  44
  3,  10,  19,  22,  11,  35,  44,  47,  36
  4,   2,   9,  19,  10,  27,  34,  44,  35
  5,  22,  25,  21,  20,  47,  50,  46,  45
  6,  24,  17,  20,  14,  49,  42,  45,  39
  7,   3,  13,  17,  24,  28,  38,  42,  49
  8,  15,  21,  23,  16,  40,  46,  48,  41
  9,   8,   7,  23,  18,  33,  32,  48,  43
 10,  16,  23,   7,   1,  41,  48,  32,  26
 11,  14,   6,   5,  24,  39,  31,  30,  49
 12,  20,  12,  11,  22,  45,  37,  36,  47
 13,  17,  13,  12,  20,  42,  38,  37,  45
 14,  19,  18,  25,  22,  44,  43,  50,  47
 15,  21,  25,  18,  23,  46,  50,  43,  48
 16,   5,   4,   3,  24,  30,  29,  28,  49
 17,  39,  45,  46,  40,  64,  70,  71,  65
 18,  34,  33,  43,  44,  59,  58,  68,  69
 19,  35,  44,  47,  36,  60,  69,  72,  61
 20,  27,  34,  44,  35,  52,  59,  69,  60
** ... 348 like lines cut
*Node
    601,           0.,           0.,           0.
*Nset, nset=NARCH-RefPt_, internal
601, 
*Nset, nset=_PickedSet29, internal, generate
   1,  600,    1
*Elset, elset=_PickedSet29, internal, generate
   1,  368,    1
** Section: RIB/ARCH
*Solid Section, elset=_PickedSet29, material=RIB/ARCH
,
*End Part
**  
*Part, name=NFILL
*Node
      1,        637.5,           0.,  -646.969971
      2,        637.5,           0.,        -394.
      3,        622.5,           0.,        -374.
      4,        602.5,           0.,        -374.
      5,   544.869995,           0.,  -407.579987
      6,   532.650024,           0.,  -423.420013
      7,   539.330017,           0.,   -447.51001
      8,   580.159973,           0.,  -460.059998
      9,    576.01001,           0.,  -481.970001
     10,       610.25,           0.,  -481.970001
     11,       610.25,           0.,  -646.969971
     12,        637.5,           0.,  -615.348755
     13,        637.5,           0.,  -583.727478
     14,        637.5,           0.,  -552.106262
     15,        637.5,           0.,  -520.484985
     16,        637.5,           0.,  -488.863739
     17,        637.5,           0.,  -457.242493
     18,        637.5,           0.,  -425.621246
     19,   573.684998,           0.,  -390.790009
     20,   559.744995,           0.,  -453.785004
** ... 376 like lines cut
*Element, type=C3D8R
  1,  11,  25,  30,  26,  47,  61,  66,  62
  2,  12,  24,  23,  13,  48,  60,  59,  49
  3,  32,  29,  28,  31,  68,  65,  64,  67
  4,  20,   7,   6,  27,  56,  43,  42,  63
  5,   3,  31,  34,   4,  39,  67,  70,  40
  6,   9,   8,  33,  10,  45,  44,  69,  46
  7,   8,  28,  29,  33,  44,  64,  65,  69
  8,  21,  15,  14,  22,  57,  51,  50,  58
  9,  10,  16,  15,  21,  46,  52,  51,  57
 10,  33,  17,  16,  10,  69,  53,  52,  46
 11,  35,  19,   4,  34,  71,  55,  40,  70
 12,  27,  28,   8,  20,  63,  64,  44,  56
 13,  13,  23,  22,  14,  49,  59,  58,  50
 14,  30,  25,  24,  12,  66,  61,  60,  48
 15,  12,   1,  26,  30,  48,  37,  62,  66
 16,  19,  35,  36,   5,  55,  71,  72,  41
 17,  28,  27,  36,  35,  64,  63,  72,  71
 18,  34,  31,  28,  35,  70,  67,  64,  71
 19,   2,  18,  29,  32,  38,  54,  65,  68
 20,   3,   2,  32,  31,  39,  38,  68,  67
** ... 200 like lines cut
*Node
    397,           0.,           0.,           0.
*Nset, nset=NFILL-RefPt_, internal
397, 
*Nset, nset=_PickedSet81, internal, generate
   1,  396,    1
*Elset, elset=_PickedSet81, internal, generate
   1,  220,    1
** Section: FILL
*Solid Section, elset=_PickedSet81, material=FILL
,
*End Part
**  
*Part, name=NWEB
*Node
      1,           0.,   758.400024,  -12.6300001
      2,           0.,   775.900024,  -12.6300001
      3,           0.,   793.400024,  -12.6300001
      4,           0.,   758.523071,   -48.733078
      5,           0.,   776.023071,   -48.733078
      6,           0.,   793.523071,   -48.733078
      7,           0.,   758.646179,  -84.8361511
      8,           0.,   776.146179,  -84.8361511
      9,           0.,   793.646179,  -84.8361511
     10,           0.,   758.769226,  -120.939232
     11,           0.,   776.269226,  -120.939232
     12,           0.,   793.769226,  -120.939232
     13,           0.,   758.892334,  -157.042313
     14,           0.,   776.392334,  -157.042313
     15,           0.,   793.892334,  -157.042313
     16,           0.,   759.015381,  -193.145386
     17,           0.,   776.515381,  -193.145386
     18,           0.,   794.015381,  -193.145386
     19,           0.,   759.138489,  -229.248459
     20,           0.,   776.638489,  -229.248459
** ... 1660 like lines cut
*Element, type=C3D8R
   1,   43,   44,   47,   46,    1,    2,    5,    4
   2,   44,   45,   48,   47,    2,    3,    6,    5
   3,   46,   47,   50,   49,    4,    5,    8,    7
   4,   47,   48,   51,   50,    5,    6,    9,    8
   5,   49,   50,   53,   52,    7,    8,   11,   10
   6,   50,   51,   54,   53,    8,    9,   12,   11
   7,   52,   53,   56,   55,   10,   11,   14,   13
   8,   53,   54,   57,   56,   11,   12,   15,   14
   9,   55,   56,   59,   58,   13,   14,   17,   16
  10,   56,   57,   60,   59,   14,   15,   18,   17
  11,   58,   59,   62,   61,   16,   17,   20,   19
  12,   59,   60,   63,   62,   17,   18,   21,   20
  13,   61,   62,   65,   64,   19,   20,   23,   22
  14,   62,   63,   66,   65,   20,   21,   24,   23
  15,   64,   65,   68,   67,   22,   23,   26,   25
  16,   65,   66,   69,   68,   23,   24,   27,   26
  17,   67,   68,   71,   70,   25,   26,   29,   28
  18,   68,   69,   72,   71,   26,   27,   30,   29
  19,   70,   71,   74,   73,   28,   29,   32,   31
  20,   71,   72,   75,   74,   29,   30,   33,   32
** ... 994 like lines cut
*Node
   1681,           0.,           0.,           0.
*Nset, nset=NWEB-RefPt_, internal
1681, 
*Nset, nset=_PickedSet57, internal, generate
    1,  1680,     1
*Elset, elset=_PickedSet57, internal, generate
    1,  1014,     1
*Nset, nset=_PickedSet60, internal, generate
   42,  1680,    42
*Elset, elset=_PickedSet60, internal, generate
   26,  1014,    26
*Elset, elset=__PickedSurf59_S4, internal, generate
    2,  1014,     2
*Surface, type=ELEMENT, name=_PickedSurf59, internal
__PickedSurf59_S4, S4
*Distribution, name=Ori-1-DiscOrient-2, location=ELEMENT, Table=Ori-1-DiscOrient-2_Table
** Description: Distribution generated from Discrete Orientation
,           1.,           0.,           0.,           0.,           1.,           0.
1, 0.00145997968502343, 0.0038542072288692, 0.999991536140442, 0.962127685546875, -0.272599011659622, -0.000354036776116118
2, 0.001456004451029, 0.00385533343069255, 0.999991536140442, 0.962127685546875, -0.2725989818573, -0.000349905254552141
3, 0.00145998888183385, 0.00385420443490148, 0.999991476535797, 0.96212762594223, -0.272599011659622, -0.00035404646769166
4, 0.00145601516123861, 0.00385533040389419, 0.999991536140442, 0.962127685546875, -0.272599011659622, -0.000349916430423036
5, -0.00114921445492655, -0.0030330962035805, 0.99999475479126, 0.950453221797943, -0.310867637395859, 0.000149383951793425
6, -0.00114614062476903, -0.00303410179913044, 0.999994814395905, 0.950453281402588, -0.310867637395859, 0.000146149890497327
7, -0.00114922062493861, -0.00303309410810471, 0.99999475479126, 0.950453162193298, -0.310867607593536, 0.000149390325532295
8, -0.00114614714402705, -0.00303409923799336, 0.99999475479126, 0.950453281402588, -0.310867637395859, 0.000146156904520467
9, -0.00114922609645873, -0.00303309201262891, 0.999994695186615, 0.950453162193298, -0.310867607593536, 0.000149396306369454
10, -0.00114615331403911, -0.00303409714251757, 0.99999475479126, 0.950453221797943, -0.310867607593536, 0.000146163263707422
11, -0.00114923156797886, -0.00303309038281441, 0.999994695186615, 0.950453162193298, -0.310867607593536, 0.000149401996168308
12, -0.00114615901838988, -0.00303409551270306, 0.999994814395905, 0.950453281402588, -0.310867637395859, 0.000146169259096496
13, -0.00114923680666834, -0.0030330887529999, 0.99999475479126, 0.950453221797943, -0.310867637395859, 0.00014940754044801
14, -0.00114616460632533, -0.00303409388288856, 0.999994814395905, 0.950453281402588, -0.310867637395859, 0.000146175065310672
15, -0.00114924204535782, -0.00303308665752411, 0.999994695186615, 0.950453162193298, -0.310867607593536, 0.000149413157487288
16, -0.00114617007784545, -0.00303409178741276, 0.99999475479126, 0.950453221797943, -0.310867607593536, 0.000146180958836339
17, -0.00114924774970859, -0.00303308526054025, 0.999994695186615, 0.950453162193298, -0.310867637395859, 0.000149418920045719
18, -0.00114617601502687, -0.00303408992476761, 0.999994814395905, 0.950453221797943, -0.310867637395859, 0.000146187143400311
19, -0.00114925357047468, -0.0030330833978951, 0.99999475479126, 0.950453221797943, -0.310867637395859, 0.000149425017298199
20, -0.00114618241786957, -0.00303408782929182, 0.999994814395905, 0.950453221797943, -0.310867637395859, 0.00014619376452174
** ... 994 like lines cut
*Orientation, name=Ori-1, system=RECTANGULAR
Ori-1-DiscOrient-2
1, 0.
** Section: WEB
*Solid Section, elset=_PickedSet57, orientation=Ori-1, material=WEB
,
*End Part
**  
*Part, name=RARCH-merged
*Node
      1,           0.,         780.,           0.
      2,           0.,         700.,           0.
      3,   16.3747025,   697.296692,           0.
      4,   40.9367561,   713.190491,           0.
      5,   40.9367561,   753.223572,           0.
      6,   16.3747025,   757.312866,           0.
      7,   16.3747025,    777.31781,           0.
      8,   527.921204,         295.,    407.14151
      9,   534.027771,         295.,   399.222565
     10,   517.049622,         295.,   386.128723
     11,   526.210083,         295.,   374.250793
     12,   492.031464,         295.,   347.891663
     13,   465.654846,         295.,   346.492218
     14,   459.547852,         295.,   354.410858
     15,   534.027771,         295.,  -399.222565
     16,   527.921204,         295.,   -407.14151
     17,   517.049622,         295.,  -386.128723
     18,   526.210083,         295.,  -374.250793
     19,   492.031464,         295.,  -347.891663
     20,   465.654846,         295.,  -346.492218
** ... 995 like lines cut
*Element, type=C3D8R
  1,   6,   7,   1,  42, 119,  69,  70, 681
  2,  43, 655,   6,  42, 682, 866, 119, 681
  3,   5,   6, 655,   4, 144, 119, 866, 169
  4, 655,  44,   3,   4, 866, 656, 194, 169
  5,  44, 655,  43,   2, 656, 866, 682, 220
  6, 119,  69,  70, 681, 118,  68,  71, 683
  7, 682, 866, 119, 681, 684, 867, 118, 683
  8, 144, 119, 866, 169, 143, 118, 867, 168
  9, 866, 656, 194, 169, 867, 657, 193, 168
 10, 656, 866, 682, 220, 657, 867, 684, 219
 11, 118,  68,  71, 683, 117,  67,  72, 685
 12, 684, 867, 118, 683, 686, 868, 117, 685
 13, 143, 118, 867, 168, 142, 117, 868, 167
 14, 867, 657, 193, 168, 868, 658, 192, 167
 15, 657, 867, 684, 219, 658, 868, 686, 218
 16, 117,  67,  72, 685, 116,  66,  73, 687
 17, 686, 868, 117, 685, 688, 869, 116, 687
 18, 142, 117, 868, 167, 141, 116, 869, 166
 19, 868, 658, 192, 167, 869, 659, 191, 166
 20, 658, 868, 686, 218, 659, 869, 688, 217
** ... 552 like lines cut
*Nset, nset=_PickedSet24, internal, generate
    1,  1015,     1
*Elset, elset=_PickedSet24, internal, generate
   1,  572,    1
** Section: RIB/ARCH
*Solid Section, elset=_PickedSet24, material=RIB/ARCH
,
*End Part
**  
*Part, name=TARCH-merged
*Node
      1,        602.5,         780.,           0.
      2,        622.5,         780.,           0.
      3,        622.5,         760.,           0.
      4,        637.5,         760.,           0.
      5,        637.5,         720.,           0.
      6,        622.5,         700.,           0.
      7,        602.5,         700.,           0.
      8,        587.5,         720.,           0.
      9,        587.5,         760.,           0.
     10,        602.5,         760.,           0.
     11,        602.5,         295.,   379.595123
     12,        602.5,         295.,    398.44873
     13,        622.5,         295.,   323.450745
     14,        602.5,         295.,   323.450745
     15,        637.5,         295.,   342.092957
     16,        637.5,         295.,   379.595123
     17,        622.5,         295.,   379.595123
     18,        622.5,         295.,   398.444214
     19,        587.5,         295.,   342.092957
     20,        587.5,         295.,   379.595123
** ... 472 like lines cut
*Element, type=C3D8R
  1,   3,   2,   1,  10, 145, 164,  49,  50
  2,   7,   6,   5, 411,  87,  88, 107, 417
  3,   7, 411, 412,   8,  87, 417, 418, 201
  4,   3, 411,   5,   4, 145, 417, 107, 126
  5,   3,  10, 412, 411, 145,  50, 418, 417
  6,   8, 412,  10,   9, 201, 418,  50, 202
  7, 145, 164,  49,  50, 146, 165,  48,  51
  8,  87,  88, 107, 417,  86,  89, 108, 419
  9,  87, 417, 418, 201,  86, 419, 420, 200
 10, 145, 417, 107, 126, 146, 419, 108, 127
 11, 145,  50, 418, 417, 146,  51, 420, 419
 12, 201, 418,  50, 202, 200, 420,  51, 203
 13, 146, 165,  48,  51, 147, 166,  47,  52
 14,  86,  89, 108, 419,  85,  90, 109, 421
 15,  86, 419, 420, 200,  85, 421, 422, 199
 16, 146, 419, 108, 127, 147, 421, 109, 128
 17, 146,  51, 420, 419, 147,  52, 422, 421
 18, 200, 420,  51, 203, 199, 422,  52, 204
 19, 147, 166,  47,  52, 148, 167,  46,  53
 20,  85,  90, 109, 421,  84,  91, 110, 423
** ... 220 like lines cut
*Nset, nset=_PickedSet11, internal, generate
   1,  492,    1
*Elset, elset=_PickedSet11, internal, generate
   1,  240,    1
** Section: RIB/ARCH
*Solid Section, elset=_PickedSet11, material=RIB/ARCH
,
*End Part
**  
*Part, name=TWEB-merged
*Node
      1,        602.5,         295.,   -417.18866
      2,   548.149902,         295.,  -410.232361
      3,   16.3700008,   792.309998,           0.
      4,        602.5,         795.,           0.
      5,   516.647583,         295.,  -385.932312
      6,   16.3700008,   757.309998,           0.
      7,        602.5,         760.,           0.
      8,        602.5,         295.,  -380.394501
      9,   548.104553,         295.,   410.198578
     10,        602.5,         295.,   417.174103
     11,        602.5,         295.,   380.389343
     12,   516.639404,         295.,   385.926239
     13,   597.621033,         295.,  -416.086487
     14,   592.696716,         295.,  -415.209503
     15,   587.736694,         295.,  -414.563843
     16,   582.752625,         295.,  -414.141418
     17,    577.75592,         295.,  -413.909912
     18,   572.754883,         295.,  -413.799957
     19,   567.753723,         295.,  -413.694427
     20,   562.758911,         295.,  -413.430145
** ... 2608 like lines cut
*Element, type=C3D8R
  1,  194, 1129, 1929, 1059,    1,   13,  359,  102
  2, 1129, 1130, 1930, 1929,   13,   14,  360,  359
  3, 1130, 1131, 1931, 1930,   14,   15,  361,  360
  4, 1131, 1132, 1932, 1931,   15,   16,  362,  361
  5, 1132, 1133, 1933, 1932,   16,   17,  363,  362
  6, 1133, 1134, 1934, 1933,   17,   18,  364,  363
  7, 1134, 1135, 1935, 1934,   18,   19,  365,  364
  8, 1135, 1136, 1936, 1935,   19,   20,  366,  365
  9, 1136, 1137, 1937, 1936,   20,   21,  367,  366
 10, 1137, 1138, 1938, 1937,   21,   22,  368,  367
 11, 1138,  196, 1094, 1938,   22,    2,   23,  368
 12, 1059, 1929, 1939, 1060,  102,  359,  369,  101
 13, 1929, 1930, 1940, 1939,  359,  360,  370,  369
 14, 1930, 1931, 1941, 1940,  360,  361,  371,  370
 15, 1931, 1932, 1942, 1941,  361,  362,  372,  371
 16, 1932, 1933, 1943, 1942,  362,  363,  373,  372
 17, 1933, 1934, 1944, 1943,  363,  364,  374,  373
 18, 1934, 1935, 1945, 1944,  364,  365,  375,  374
 19, 1935, 1936, 1946, 1945,  365,  366,  376,  375
 20, 1936, 1937, 1947, 1946,  366,  367,  377,  376
** ... 1564 like lines cut
*Nset, nset=_PickedSet2, internal, generate
    1,  2628,     1
*Elset, elset=_PickedSet2, internal, generate
    1,  1584,     1
*Nset, nset=_PickedSet5, internal
   4,  10, 207, 208, 209, 210, 211, 212, 213, 214, 215, 216, 217, 218, 219, 220
 221, 222, 223, 224, 225, 226, 227, 228, 229, 230, 231, 232, 233, 234, 235, 236
 237, 238, 239, 240, 241
*Elset, elset=_PickedSet5, internal, generate
  803,  1188,    11
*Nset, nset=_PickedSet8, internal
   1,   4,  68,  69,  70,  71,  72,  73,  74,  75,  76,  77,  78,  79,  80,  81
  82,  83,  84,  85,  86,  87,  88,  89,  90,  91,  92,  93,  94,  95,  96,  97
  98,  99, 100, 101, 102
*Elset, elset=_PickedSet8, internal, generate
   1,  386,   11
*Elset, elset=__PickedSurf4_S2, internal, generate
  793,  1188,     1
*Surface, type=ELEMENT, name=_PickedSurf4, internal
__PickedSurf4_S2, S2
*Elset, elset=__PickedSurf7_S2, internal, generate
   1,  396,    1
*Surface, type=ELEMENT, name=_PickedSurf7, internal
__PickedSurf7_S2, S2
*Distribution, name=Ori-2-DiscOrient, location=ELEMENT, Table=Ori-2-DiscOrient_Table
** Description: Distribution generated from Discrete Orientation
,           1.,           0.,           0.,           0.,           1.,           0.
1, 0.997535705566406, 0.0229639559984207, -0.0662955045700073, -0.00134207413066179, -0.938499271869659, -0.345278650522232
2, 0.995241582393646, 0.0319286212325096, -0.0920585542917252, 0.00269479351118207, -0.953446567058563, -0.301550060510635
3, 0.995241522789001, 0.0319592095911503, -0.0920488908886909, 0.00272672087885439, -0.953445494174957, -0.301553010940552
4, 0.995241343975067, 0.031983707100153, -0.092041127383709, 0.00275229569524527, -0.95344465970993, -0.30155536532402
5, 0.995241403579712, 0.0320026651024818, -0.092035137116909, 0.00277208304032683, -0.953444063663483, -0.301557242870331
6, 0.999527454376221, 0.0100997965782881, -0.0290307402610779, 0.000414613168686628, -0.948819279670715, -0.315819203853607
7, 0.999527454376221, 0.0101038683205843, -0.0290293842554092, 0.000418901792727411, -0.948819220066071, -0.315819323062897
8, 0.992249369621277, 0.0408655926585197, -0.117350608110428, 0.0188642591238022, -0.982969284057617, -0.182799011468887
9, 0.976818680763245, 0.0704453364014626, -0.202145636081696, 0.0231894291937351, -0.973567485809326, -0.227219462394714
10, 0.976816952228546, 0.0705156177282333, -0.20212921500206, 0.0232599526643753, -0.973562359809875, -0.227234050631523
11, 0.976814568042755, 0.0706144645810127, -0.202106148004532, 0.0233591254800558, -0.973555266857147, -0.227254569530487
12, 0.997536718845367, 0.0242502149194479, -0.0658222138881683, 2.51188976108097e-05, -0.938466966152191, -0.345369189977646
13, 0.997536718845367, 0.0243070721626282, -0.0658012926578522, 8.55547041282989e-05, -0.938465476036072, -0.345373213291168
14, 0.997536659240723, 0.0243589803576469, -0.0657821893692017, 0.000140731761348434, -0.938464105129242, -0.345376819372177
15, 0.997536659240723, 0.0244058519601822, -0.0657649338245392, 0.000190556034795009, -0.938462853431702, -0.345380127429962
16, 0.997536718845367, 0.0244480930268764, -0.065749391913414, 0.000235452404012904, -0.93846184015274, -0.345383077859879
17, 0.99786651134491, 0.022790290415287, -0.0611807592213154, 0.000810039753559977, -0.941344559192657, -0.33744603395462
18, 0.999562740325928, 0.0103366514667869, -0.0277008358389139, 0.00108599872328341, -0.949100196361542, -0.314972221851349
19, 0.999562859535217, 0.0103532867506146, -0.0276953186839819, 0.0011035178322345, -0.949100136756897, -0.314972758293152
20, 0.984030365943909, 0.0624414347112179, -0.166689246892929, 0.0174113735556602, -0.96572744846344, -0.25897341966629
** ... 772 like lines cut
*Orientation, name=Ori-2, system=RECTANGULAR
Ori-2-DiscOrient
1, 0.
** Region: (WEB:Picked), (Material Orientation:Picked)
*Elset, elset=_I1, internal, generate
   1,  792,    1
** Section: WEB
*Solid Section, elset=_I1, orientation=Ori-2, material=WEB
,
*Distribution, name=Ori-1-DiscOrient-1, location=ELEMENT, Table=Ori-1-DiscOrient-1_Table
** Description: Distribution generated from Discrete Orientation
,           1.,           0.,           0.,           0.,           1.,           0.
793, -0.974182486534119, -0.0743962824344635, -0.213151589035988, 0.020301690325141, -0.969186842441559, 0.245488882064819
794, -0.974184632301331, -0.0742916613817215, -0.213178083300591, 0.0201965272426605, -0.969194769859314, 0.245465844869614
795, -0.966559827327728, -0.0843097418546677, -0.242185845971107, 0.0229333750903606, -0.969044923782349, 0.245817184448242
796, -0.989256322383881, -0.0480324663221836, -0.138075277209282, 0.0208703894168139, -0.981210768222809, 0.19180703163147
797, -0.99963515996933, -0.0088704451918602, -0.0255117267370224, 0.000333022937411442, -0.948509514331818, 0.316748470067978
798, -0.999635219573975, -0.00886707939207554, -0.0255128499120474, 0.000329474976751953, -0.948509633541107, 0.316748440265656
799, -0.994710505008698, -0.0337069965898991, -0.09703079611063, 0.00299938814714551, -0.953754663467407, 0.300571382045746
800, -0.994710445404053, -0.0336875878274441, -0.0970368981361389, 0.00297914911061525, -0.953755259513855, 0.300569385290146
801, -0.998620569705963, -0.0172074642032385, -0.0496078133583069, -0.00172921258490533, -0.933486521244049, 0.35860812664032
802, -0.998620569705963, -0.0171912424266338, -0.0496140494942665, -0.00174656976014376, -0.933486938476563, 0.358607292175293
803, -0.998620450496674, -0.0171715915203094, -0.0496215932071209, -0.00176758889574558, -0.933487236499786, 0.358606249094009
804, -0.974056839942932, -0.0797002837061882, -0.211804658174515, 0.0256338361650705, -0.968765020370483, 0.24665193259716
805, -0.974062621593475, -0.0794790014624596, -0.211860984563828, 0.0254113581031561, -0.968783259391785, 0.246603578329086
806, -0.974067389965057, -0.0792984887957573, -0.211906939744949, 0.0252298526465893, -0.968797981739044, 0.246564045548439
807, -0.999671995639801, -0.00896000303328037, -0.0239928308874369, 0.000926205539144576, -0.948842108249664, 0.315749615430832
808, -0.999671995639801, -0.0089457193389535, -0.0239975824952126, 0.000911156297661364, -0.948842227458954, 0.315749257802963
809, -0.999475359916687, -0.0112960552796721, -0.0303544625639915, 0.000122563767945394, -0.938520431518555, 0.345223695039749
810, -0.998621821403503, -0.0182756520807743, -0.0491974204778671, -0.000586481532081962, -0.93346631526947, 0.358664691448212
811, -0.998621881008148, -0.0182443894445896, -0.04920943826437, -0.000619926897343248, -0.933466970920563, 0.358663082122803
812, -0.998621821403503, -0.0182094424962997, -0.049222856760025, -0.000657311407849193, -0.93346756696701, 0.35866117477417
** ... 772 like lines cut
*Orientation, name=Ori-1, system=RECTANGULAR
Ori-1-DiscOrient-1
1, 0.
** Region: (WEB:Picked), (Material Orientation:Picked)
*Elset, elset=_I2, internal, generate
  793,  1584,     1
** Section: WEB
*Solid Section, elset=_I2, orientation=Ori-1, material=WEB
,
*End Part
**  
**
** ASSEMBLY
**
*Assembly, name=Assembly
**  
*Instance, name=LARCH-1, part=LARCH
*End Instance
**  
*Instance, name=TARCH-merged-1, part=TARCH-merged
*End Instance
**  
*Instance, name=LWEB-1, part=LWEB
*End Instance
**  
*Instance, name=NARCH-1, part=NARCH
*End Instance
**  
*Instance, name=RARCH-merged-1, part=RARCH-merged
*End Instance
**  
*Instance, name=TWEB-merged-1, part=TWEB-merged
*End Instance
**  
*Instance, name=NWEB-1, part=NWEB
*End Instance
**  
*Instance, name=LFILL-1, part=LFILL
*End Instance
**  
*Instance, name=NFILL-1, part=NFILL
*End Instance
**  
*Nset, nset=_PickedSet66, internal, instance=LARCH-1, generate
  1,  12,   1
*Nset, nset=_PickedSet66, internal, instance=LWEB-1, generate
  1,  39,   1
*Nset, nset=_PickedSet66, internal, instance=NARCH-1, generate
  1,  25,   1
*Nset, nset=_PickedSet66, internal, instance=RARCH-merged-1
   1,   2,  22,  23,  24,  25,  26,  32,  33,  34,  35,  36,  42,  43, 401, 528
 808, 809, 810, 839
*Nset, nset=_PickedSet66, internal, instance=NWEB-1, generate
  1,  42,   1
*Elset, elset=_PickedSet66, internal, instance=LARCH-1, generate
 1,  6,  1
*Elset, elset=_PickedSet66, internal, instance=LWEB-1, generate
  1,  24,   1
*Elset, elset=_PickedSet66, internal, instance=NARCH-1, generate
  1,  16,   1
*Elset, elset=_PickedSet66, internal, instance=RARCH-merged-1
 261, 262, 263, 264, 265, 266, 267, 443, 444, 445, 446, 447
*Elset, elset=_PickedSet66, internal, instance=NWEB-1, generate
  1,  26,   1
*Nset, nset=_PickedSet95, internal, instance=LFILL-1, generate
   1,  352,    1
*Nset, nset=_PickedSet95, internal, instance=NFILL-1, generate
   1,  396,    1
*Elset, elset=_PickedSet95, internal, instance=LFILL-1, generate
   1,  180,    1
*Elset, elset=_PickedSet95, internal, instance=NFILL-1, generate
   1,  220,    1
*Nset, nset=_PickedSet96, internal, instance=NARCH-1, generate
 576,  600,    1
*Nset, nset=_PickedSet96, internal, instance=LFILL-1
   1,   2,   3,   4,   9,  10,  13,  14,  17,  18,  21,  22,  25,  26,  29,  30
  33,  34,  37,  58,  59,  78,  79,  90, 108, 109, 120, 138, 139, 150, 151, 286
*Nset, nset=_PickedSet96, internal, instance=NFILL-1, generate
  1,  36,   1
*Elset, elset=_PickedSet96, internal, instance=NARCH-1, generate
 353,  368,    1
*Elset, elset=_PickedSet96, internal, instance=LFILL-1
  1,  2, 11, 12, 21, 22, 31, 36, 37, 46, 47, 56, 61, 62, 71, 72
 73, 74
*Elset, elset=_PickedSet96, internal, instance=NFILL-1, generate
  1,  22,   1
*Nset, nset=_PickedSet97, internal, instance=LARCH-1
   1,   7,   8,   9,  10,  13,  19,  20,  21,  22,  25,  31,  32,  33,  34,  37
  43,  44,  45,  46,  49,  55,  56,  57,  58,  61,  67,  68,  69,  70,  73,  79
  80,  81,  82,  85,  91,  92,  93,  94,  97, 103, 104, 105, 106, 109, 115, 116
 117, 118, 121, 127, 128, 129, 130, 133, 139, 140, 141, 142, 145, 151, 152, 153
 154, 157, 163, 164, 165, 166, 169, 175, 176, 177, 178, 181, 187, 188, 189, 190
 193, 199, 200, 201, 202, 205, 211, 212, 213, 214, 217, 223, 224, 225, 226, 229
 235, 236, 237, 238, 241, 247, 248, 249, 250, 253, 259, 260, 261, 262, 265, 271
 272, 273, 274
*Elset, elset=_PickedSet97, internal, instance=LARCH-1
   1,   3,   6,   7,   9,  12,  13,  15,  18,  19,  21,  24,  25,  27,  30,  31
  33,  36,  37,  39,  42,  43,  45,  48,  49,  51,  54,  55,  57,  60,  61,  63
  66,  67,  69,  72,  73,  75,  78,  79,  81,  84,  85,  87,  90,  91,  93,  96
  97,  99, 102, 103, 105, 108, 109, 111, 114, 115, 117, 120, 121, 123, 126, 127
 129, 132
*Nset, nset=_PickedSet98, internal, instance=LFILL-1
   1,   2,   3,   5,   6,   7,   9,  11,  37,  38,  39,  40,  41,  43,  45,  58
  60,  66,  67,  68,  69,  70,  71,  72,  73,  74,  75,  76,  77,  78,  80,  86
  87,  88,  89, 151, 153, 154, 155, 156, 157, 158, 159, 160, 161, 162, 163, 164
 165, 166, 167, 168, 169, 170, 176, 177, 178, 179, 180, 186, 193, 194, 195, 196
 250, 251, 252, 253, 254, 255, 256, 257, 288, 289, 290, 291, 296, 297, 298, 299
 304, 305, 306, 307, 317, 318, 319, 320
*Nset, nset=_PickedSet98, internal, instance=NFILL-1
   1,   2,  11,  12,  13,  14,  15,  16,  17,  18,  26,  37,  38,  47,  48,  49
  50,  51,  52,  53,  54,  62,  73,  74,  83,  84,  85,  86,  87,  88,  89,  90
  98, 109, 110, 119, 120, 121, 122, 123, 124, 125, 126, 134, 145, 146, 155, 156
 157, 158, 159, 160, 161, 162, 170, 181, 182, 191, 192, 193, 194, 195, 196, 197
 198, 206, 217, 218, 227, 228, 229, 230, 231, 232, 233, 234, 242, 253, 254, 263
 264, 265, 266, 267, 268, 269, 270, 278, 289, 290, 299, 300, 301, 302, 303, 304
 305, 306, 314, 325, 326, 335, 336, 337, 338, 339, 340, 341, 342, 350, 361, 362
 371, 372, 373, 374, 375, 376, 377, 378, 386
*Elset, elset=_PickedSet98, internal, instance=LFILL-1
   1,   2,   3,   4,   5,   6,   7,   8,   9,  10,  11,  12,  13,  14,  15,  16
  17,  18,  19,  20,  72,  74,  76,  78,  80,  82,  84,  86,  88,  90,  91,  92
  93,  94,  95,  96,  97,  98,  99, 100, 101, 102, 103, 104, 105, 106, 107, 108
 109, 110, 111, 112, 115, 116, 119, 120, 123, 124, 127, 128
*Elset, elset=_PickedSet98, internal, instance=NFILL-1
   1,   2,   8,   9,  10,  13,  15,  19,  21,  23,  24,  30,  31,  32,  35,  37
  41,  43,  45,  46,  52,  53,  54,  57,  59,  63,  65,  67,  68,  74,  75,  76
  79,  81,  85,  87,  89,  90,  96,  97,  98, 101, 103, 107, 109, 111, 112, 118
 119, 120, 123, 125, 129, 131, 133, 134, 140, 141, 142, 145, 147, 151, 153, 155
 156, 162, 163, 164, 167, 169, 173, 175, 177, 178, 184, 185, 186, 189, 191, 195
 197, 199, 200, 206, 207, 208, 211, 213, 217, 219
*Nset, nset=_PickedSet111, internal, instance=LARCH-1, generate
   1,  276,    1
*Nset, nset=_PickedSet111, internal, instance=TARCH-merged-1, generate
   1,  492,    1
*Nset, nset=_PickedSet111, internal, instance=NARCH-1, generate
   1,  600,    1
*Nset, nset=_PickedSet111, internal, instance=RARCH-merged-1, generate
    1,  1015,     1
*Elset, elset=_PickedSet111, internal, instance=LARCH-1, generate
   1,  132,    1
*Elset, elset=_PickedSet111, internal, instance=TARCH-merged-1, generate
   1,  240,    1
*Elset, elset=_PickedSet111, internal, instance=NARCH-1, generate
   1,  368,    1
*Elset, elset=_PickedSet111, internal, instance=RARCH-merged-1, generate
   1,  572,    1
*Nset, nset=_PickedSet112, internal, instance=LWEB-1, generate
    1,  1521,     1
*Nset, nset=_PickedSet112, internal, instance=TWEB-merged-1, generate
    1,  2628,     1
*Nset, nset=_PickedSet112, internal, instance=NWEB-1, generate
    1,  1680,     1
*Elset, elset=_PickedSet112, internal, instance=LWEB-1, generate
   1,  912,    1
*Elset, elset=_PickedSet112, internal, instance=TWEB-merged-1, generate
    1,  1584,     1
*Elset, elset=_PickedSet112, internal, instance=NWEB-1, generate
    1,  1014,     1
*Nset, nset=_PickedSet113, internal, instance=LWEB-1, generate
    1,  1521,     1
*Nset, nset=_PickedSet113, internal, instance=TWEB-merged-1, generate
    1,  2628,     1
*Nset, nset=_PickedSet113, internal, instance=NWEB-1, generate
    1,  1680,     1
*Elset, elset=_PickedSet113, internal, instance=LWEB-1, generate
   1,  912,    1
*Elset, elset=_PickedSet113, internal, instance=TWEB-merged-1, generate
    1,  1584,     1
*Elset, elset=_PickedSet113, internal, instance=NWEB-1, generate
    1,  1014,     1
*Elset, elset=__PickedSurf84_S4, internal, instance=LFILL-1
  95, 100
*Elset, elset=__PickedSurf84_S3, internal, instance=LFILL-1
 101, 102
*Elset, elset=__PickedSurf84_S2, internal, instance=LFILL-1
 111, 112, 113, 114, 131, 132, 141, 146, 147, 156, 157, 166, 171, 172
*Surface, type=ELEMENT, name=_PickedSurf84, internal
__PickedSurf84_S4, S4
__PickedSurf84_S3, S3
__PickedSurf84_S2, S2
*Elset, elset=__PickedSurf85_S2, internal, instance=LARCH-1, generate
 127,  132,    1
*Elset, elset=__PickedSurf85_S2, internal, instance=TARCH-merged-1, generate
 115,  120,    1
*Elset, elset=__PickedSurf85_S2, internal, instance=RARCH-merged-1
 126, 127, 128, 129, 130, 568, 569, 570, 571, 572
*Surface, type=ELEMENT, name=_PickedSurf85, internal
__PickedSurf85_S2, S2
*Elset, elset=__PickedSurf86_S4, internal, instance=LFILL-1
  95, 100
*Elset, elset=__PickedSurf86_S3, internal, instance=LFILL-1
 101, 102
*Elset, elset=__PickedSurf86_S2, internal, instance=LFILL-1
 111, 112, 113, 114, 131, 132, 141, 146, 147, 156, 157, 166, 171, 172
*Surface, type=ELEMENT, name=_PickedSurf86, internal
__PickedSurf86_S4, S4
__PickedSurf86_S3, S3
__PickedSurf86_S2, S2
*Elset, elset=__PickedSurf87_S1, internal, instance=LWEB-1, generate
 889,  912,    1
*Elset, elset=__PickedSurf87_S3, internal, instance=TWEB-merged-1
  793,  794,  795,  796,  797,  798,  799,  800,  801,  802,  803, 1189, 1190, 1191, 1192, 1193
 1194, 1195, 1196, 1197, 1198, 1199
*Surface, type=ELEMENT, name=_PickedSurf87, internal
__PickedSurf87_S1, S1
__PickedSurf87_S3, S3
*Elset, elset=__PickedSurf88_S2, internal, instance=NFILL-1, generate
 199,  220,    1
*Surface, type=ELEMENT, name=_PickedSurf88, internal
__PickedSurf88_S2, S2
*Elset, elset=__PickedSurf89_S2, internal, instance=TARCH-merged-1, generate
 235,  240,    1
*Elset, elset=__PickedSurf89_S2, internal, instance=RARCH-merged-1
 256, 257, 258, 259, 260, 436, 437, 438, 439, 440, 441, 442
*Surface, type=ELEMENT, name=_PickedSurf89, internal
__PickedSurf89_S2, S2
*Elset, elset=__PickedSurf90_S2, internal, instance=NFILL-1, generate
 199,  220,    1
*Surface, type=ELEMENT, name=_PickedSurf90, internal
__PickedSurf90_S2, S2
*Elset, elset=__PickedSurf91_S3, internal, instance=TWEB-merged-1
   1,   2,   3,   4,   5,   6,   7,   8,   9,  10,  11, 397, 398, 399, 400, 401
 402, 403, 404, 405, 406, 407
*Elset, elset=__PickedSurf91_S1, internal, instance=NWEB-1, generate
  989,  1014,     1
*Surface, type=ELEMENT, name=_PickedSurf91, internal
__PickedSurf91_S3, S3
__PickedSurf91_S1, S1
*Elset, elset=__PickedSurf92_S6, internal, instance=NFILL-1
   6,   8,   9,  28,  30,  31,  50,  52,  53,  72,  74,  75,  94,  96,  97, 116
 118, 119, 138, 140, 141, 160, 162, 163, 182, 184, 185, 204, 206, 207
*Elset, elset=__PickedSurf92_S3, internal, instance=NFILL-1, generate
   1,  199,   22
*Elset, elset=__PickedSurf92_S4, internal, instance=NFILL-1
   2,  13,  14,  24,  35,  36,  46,  57,  58,  68,  79,  80,  90, 101, 102, 112
 123, 124, 134, 145, 146, 156, 167, 168, 178, 189, 190, 200, 211, 212
*Surface, type=ELEMENT, name=_PickedSurf92, internal
__PickedSurf92_S6, S6
__PickedSurf92_S3, S3
__PickedSurf92_S4, S4
*Elset, elset=__PickedSurf93_S3, internal, instance=NARCH-1
   2,   4,   9,  11,  18,  20,  25,  27,  34,  36,  41,  43,  50,  52,  57,  59
  66,  68,  73,  75,  82,  84,  89,  91,  98, 100, 105, 107, 114, 116, 121, 123
 130, 132, 137, 139, 146, 148, 153, 155, 162, 164, 169, 171, 178, 180, 185, 187
 194, 196, 201, 203, 210, 212, 217, 219, 226, 228, 233, 235, 242, 244, 249, 251
 258, 260, 265, 267, 274, 276, 281, 283, 290, 292, 297, 299, 306, 308, 313, 315
 322, 324, 329, 331, 338, 340, 345, 347, 354, 356, 361, 363
*Elset, elset=__PickedSurf93_S5, internal, instance=NARCH-1, generate
  10,  362,   16
*Elset, elset=__PickedSurf93_S6, internal, instance=NARCH-1
   1,   8,  10,  17,  24,  26,  33,  40,  42,  49,  56,  58,  65,  72,  74,  81
  88,  90,  97, 104, 106, 113, 120, 122, 129, 136, 138, 145, 152, 154, 161, 168
 170, 177, 184, 186, 193, 200, 202, 209, 216, 218, 225, 232, 234, 241, 248, 250
 257, 264, 266, 273, 280, 282, 289, 296, 298, 305, 312, 314, 321, 328, 330, 337
 344, 346, 353, 360, 362
*Surface, type=ELEMENT, name=_PickedSurf93, internal
__PickedSurf93_S3, S3
__PickedSurf93_S5, S5
__PickedSurf93_S6, S6
*Elset, elset=__PickedSurf105_S3, internal, instance=LARCH-1, generate
   1,  127,    6
*Elset, elset=__PickedSurf105_S5, internal, instance=RARCH-merged-1, generate
 443,  568,    5
*Surface, type=ELEMENT, name=_PickedSurf105, internal
__PickedSurf105_S3, S3
__PickedSurf105_S5, S5
*Elset, elset=__PickedSurf106_S5, internal, instance=LWEB-1
  23,  24,  47,  48,  71,  72,  95,  96, 119, 120, 143, 144, 167, 168, 191, 192
 215, 216, 239, 240, 263, 264, 287, 288, 311, 312, 335, 336, 359, 360, 383, 384
 407, 408, 431, 432, 455, 456, 479, 480, 503, 504, 527, 528, 551, 552, 575, 576
 599, 600, 623, 624, 647, 648, 671, 672, 695, 696, 719, 720, 743, 744, 767, 768
 791, 792, 815, 816, 839, 840, 863, 864, 887, 888, 911, 912
*Elset, elset=__PickedSurf106_S3, internal, instance=LWEB-1
   1,   2,  25,  26,  49,  50,  73,  74,  97,  98, 121, 122, 145, 146, 169, 170
 193, 194, 217, 218, 241, 242, 265, 266, 289, 290, 313, 314, 337, 338, 361, 362
 385, 386, 409, 410, 433, 434, 457, 458, 481, 482, 505, 506, 529, 530, 553, 554
 577, 578, 601, 602, 625, 626, 649, 650, 673, 674, 697, 698, 721, 722, 745, 746
 769, 770, 793, 794, 817, 818, 841, 842, 865, 866, 889, 890
*Surface, type=ELEMENT, name=_PickedSurf106, internal
__PickedSurf106_S5, S5
__PickedSurf106_S3, S3
*Elset, elset=__PickedSurf107_S6, internal, instance=NARCH-1
   1,   8,  10,  17,  24,  26,  33,  40,  42,  49,  56,  58,  65,  72,  74,  81
  88,  90,  97, 104, 106, 113, 120, 122, 129, 136, 138, 145, 152, 154, 161, 168
 170, 177, 184, 186, 193, 200, 202, 209, 216, 218, 225, 232, 234, 241, 248, 250
 257, 264, 266, 273, 280, 282, 289, 296, 298, 305, 312, 314, 321, 328, 330, 337
 344, 346, 353, 360, 362
*Elset, elset=__PickedSurf107_S6, internal, instance=RARCH-merged-1, generate
 263,  438,    7
*Elset, elset=__PickedSurf107_S3, internal, instance=NARCH-1, generate
  11,  363,   16
*Surface, type=ELEMENT, name=_PickedSurf107, internal
__PickedSurf107_S6, S6
__PickedSurf107_S3, S3
*Elset, elset=__PickedSurf108_S5, internal, instance=NWEB-1
   25,   26,   51,   52,   77,   78,  103,  104,  129,  130,  155,  156,  181,  182,  207,  208
  233,  234,  259,  260,  285,  286,  311,  312,  337,  338,  363,  364,  389,  390,  415,  416
  441,  442,  467,  468,  493,  494,  519,  520,  545,  546,  571,  572,  597,  598,  623,  624
  649,  650,  675,  676,  701,  702,  727,  728,  753,  754,  779,  780,  805,  806,  831,  832
  857,  858,  883,  884,  909,  910,  935,  936,  961,  962,  987,  988, 1013, 1014
*Elset, elset=__PickedSurf108_S3, internal, instance=NWEB-1
   1,   2,  27,  28,  53,  54,  79,  80, 105, 106, 131, 132, 157, 158, 183, 184
 209, 210, 235, 236, 261, 262, 287, 288, 313, 314, 339, 340, 365, 366, 391, 392
 417, 418, 443, 444, 469, 470, 495, 496, 521, 522, 547, 548, 573, 574, 599, 600
 625, 626, 651, 652, 677, 678, 703, 704, 729, 730, 755, 756, 781, 782, 807, 808
 833, 834, 859, 860, 885, 886, 911, 912, 937, 938, 963, 964, 989, 990
*Surface, type=ELEMENT, name=_PickedSurf108, internal
__PickedSurf108_S5, S5
__PickedSurf108_S3, S3
*Elset, elset=__PickedSurf109_S4, internal, instance=TARCH-merged-1, generate
 121,  235,    6
*Elset, elset=__PickedSurf109_S5, internal, instance=TARCH-merged-1, generate
   1,  115,    6
*Elset, elset=__PickedSurf109_S6, internal, instance=RARCH-merged-1, generate
 131,  256,    5
*Elset, elset=__PickedSurf109_S3, internal, instance=RARCH-merged-1, generate
   1,  126,    5
*Surface, type=ELEMENT, name=_PickedSurf109, internal
__PickedSurf109_S4, S4
__PickedSurf109_S5, S5
__PickedSurf109_S6, S6
__PickedSurf109_S3, S3
*Elset, elset=__PickedSurf110_S4, internal, instance=TWEB-merged-1, generate
   11,  1584,    11
*Elset, elset=__PickedSurf110_S6, internal, instance=TWEB-merged-1, generate
    1,  1574,    11
*Surface, type=ELEMENT, name=_PickedSurf110, internal
__PickedSurf110_S4, S4
__PickedSurf110_S6, S6
** Constraint: LARCH-RARCH-LWEB
*Tie, name=LARCH-RARCH-LWEB, adjust=yes, no rotation
_PickedSurf106, _PickedSurf105
** Constraint: LARCH-RARCH-TARCH-LFILL
*Tie, name=LARCH-RARCH-TARCH-LFILL, adjust=yes
_PickedSurf85, _PickedSurf84
** Constraint: LWEB-TWEB-LFILL
*Tie, name=LWEB-TWEB-LFILL, adjust=yes, no rotation
_PickedSurf87, _PickedSurf86
** Constraint: NARCH-NFILL
*Tie, name=NARCH-NFILL, adjust=yes
_PickedSurf93, _PickedSurf92
** Constraint: RARCH-NARCH-NWEB
*Tie, name=RARCH-NARCH-NWEB, adjust=yes, no rotation
_PickedSurf108, _PickedSurf107
** Constraint: RARCH-TARCH-TWEB
*Tie, name=RARCH-TARCH-TWEB, adjust=yes, no rotation
_PickedSurf110, _PickedSurf109
** Constraint: TARCH-RARCH-NFILL
*Tie, name=TARCH-RARCH-NFILL, adjust=yes
_PickedSurf89, _PickedSurf88
** Constraint: TWEB-NWEB-NFILL
*Tie, name=TWEB-NWEB-NFILL, adjust=yes, no rotation
_PickedSurf91, _PickedSurf90
*End Assembly
*Distribution Table, name=Ori-1-DiscOrient_Table
coord3D, coord3D
*Distribution Table, name=Ori-2-DiscOrient_Table
coord3D, coord3D
*Distribution Table, name=Ori-1-DiscOrient-1_Table
coord3D, coord3D
*Distribution Table, name=Ori-1-DiscOrient-2_Table
coord3D, coord3D
** 
** MATERIALS
** 
*Material, name=FILL
*Density
 6.4e-06,
*Elastic
500., 0.2
*Material, name=RIB/ARCH
*Elastic
500., 0.2
*Material, name=WEB
*Elastic
670., 0.3
** 
** INTERACTION PROPERTIES
** 
*Surface Interaction, name=GenInt
1.,
*Friction, slip tolerance=0.005
 0.7,
*Surface Behavior, pressure-overclosure=HARD
** 
** BOUNDARY CONDITIONS
** 
** Name: BaseSup Type: Symmetry/Antisymmetry/Encastre
*Boundary
_PickedSet96, PINNED
** Name: FillSup Type: Symmetry/Antisymmetry/Encastre
*Boundary
_PickedSet98, PINNED
** Name: VaultSym Type: Symmetry/Antisymmetry/Encastre
*Boundary
_PickedSet66, XSYMM
** Name: WallSup Type: Symmetry/Antisymmetry/Encastre
*Boundary
_PickedSet97, ENCASTRE
** 
** INTERACTIONS
** 
** Interaction: GenInt
*Contact
*Contact Inclusions, ALL EXTERIOR
*Contact Property Assignment
 ,  , GenInt
** ----------------------------------------------------------------
** 
** STEP: STATIC
** 
*Step, name=STATIC, nlgeom=NO
*Static
0.01, 1., 1e-10, 1.
** 
** LOADS
** 
** Name: DEAD   Type: Body force
*Dload
_PickedSet113, BY, -8.09e-05
** Name: FILL   Type: Gravity
*Dload
_PickedSet95, GRAV, 1., 0., -1., 0.
** Name: SW   Type: Body force
*Dload
_PickedSet111, BY, -5.4e-05
** Name: SW-webs   Type: Body force
*Dload
_PickedSet112, BY, -8e-05
** 
** OUTPUT REQUESTS
** 
*Restart, write, frequency=0
** 
** FIELD OUTPUT: F-Output-1
** 
*Output, field, variable=PRESELECT
** 
** HISTORY OUTPUT: H-Output-1
** 
*Output, history, variable=PRESELECT
*End Step
