*Heading
** Job name: Analysis-ShellSolid-upprop Model name: Shell-Solid
** Generated by: Abaqus/CAE 2019
*Preprint, echo=NO, model=NO, history=NO, contact=NO
**
** PARTS
**
*Part, name=LARCH
*Node
      1,           0.,         780.,          10.
      2,           0.,         760.,          10.
      3,           0.,         780.,         -10.
      4,           0.,         760.,         -10.
      5,           0.,         760.,         -25.
      6,           0.,         720.,         -25.
      7,           0.,         700.,         -10.
      8,           0.,         700.,          10.
      9,           0.,         720.,          25.
     10,           0.,         760.,          25.
     11,           0.,    728.37616,  -4.62860918
     12,           0.,     734.3125,   9.50923061
     13,   30.3483009,   767.176575,          10.
     14,   29.0525875,   747.580017,          10.
     15,   30.3479576,   767.175842,         -10.
     16,   29.0525875,   747.580017,         -10.
     17,   29.0525875,   747.580017,         -25.
     18,    26.465292,   708.398804,         -25.
     19,   25.1736107,   688.814148,         -10.
     20,   25.1736107,   688.814148,          10.
** ... 256 like lines cut
*Element, type=C3D8R
  1,   4,   3,   1,   2,  16,  15,  13,  14
  2,   8,   7,   6,  11,  20,  19,  18,  23
  3,   8,  11,  12,   9,  20,  23,  24,  21
  4,   4,  11,   6,   5,  16,  23,  18,  17
  5,   4,   2,  12,  11,  16,  14,  24,  23
  6,   9,  12,   2,  10,  21,  24,  14,  22
  7,  16,  15,  13,  14,  28,  27,  25,  26
  8,  20,  19,  18,  23,  32,  31,  30,  35
  9,  20,  23,  24,  21,  32,  35,  36,  33
 10,  16,  23,  18,  17,  28,  35,  30,  29
 11,  16,  14,  24,  23,  28,  26,  36,  35
 12,  21,  24,  14,  22,  33,  36,  26,  34
 13,  28,  27,  25,  26,  40,  39,  37,  38
 14,  32,  31,  30,  35,  44,  43,  42,  47
 15,  32,  35,  36,  33,  44,  47,  48,  45
 16,  28,  35,  30,  29,  40,  47,  42,  41
 17,  28,  26,  36,  35,  40,  38,  48,  47
 18,  33,  36,  26,  34,  45,  48,  38,  46
 19,  40,  39,  37,  38,  52,  51,  49,  50
 20,  44,  43,  42,  47,  56,  55,  54,  59
** ... 112 like lines cut
*Node
    277,           0.,           0.,           0.
*Nset, nset=LARCH-RefPt_, internal
277, 
*Nset, nset=_PickedSet46, internal, generate
   1,  276,    1
*Elset, elset=_PickedSet46, internal, generate
   1,  132,    1
** Section: RIB-ARCH
*Solid Section, elset=_PickedSet46, material=RIB-ARCH
,
*End Part
**  
*Part, name=LFILL
*Node
      1,        637.5,           0.,        428.5
      2,        637.5,           0.,        497.5
      3,   553.192505,           0.,        497.5
      4,   562.685303,           0.,   429.533508
      5,        637.5,   138.850433,    418.99118
      6,        637.5,   137.666672,        497.5
      7,   536.490723,   139.945251,        497.5
      8,   550.376648,   140.291885,   422.015839
      9,   525.090027,           0.,        497.5
     10,   511.756653,           0.,        487.5
     11,   503.002563,    140.79895,        497.5
     12,   489.876709,   140.874527,   487.497528
     13,   505.089996,           0.,        482.5
     14,   505.089996,           0.,        472.5
     15,   483.293152,   140.925766,        482.5
     16,   483.321747,   140.924759,        472.5
     17,   505.089996,           0.,        462.5
     18,    510.60199,           0.,    454.68399
     19,   483.346954,   140.938873,        462.5
     20,   488.010162,   141.186737,   450.613068
** ... 604 like lines cut
*Element, type=C3D8R
  1,  76, 387, 599, 363,   1,  58, 359,  63
  2, 387,  88, 375, 599,  58,   2,  59, 359
  3, 363, 599, 600, 364,  63, 359, 360,  62
  4, 599, 375, 376, 600, 359,  59,  60, 360
  5, 364, 600, 393,  75,  62, 360,  61,   4
  6, 600, 376,  87, 393, 360,  60,   3,  61
  7,  77, 388, 601, 365,  76, 387, 599, 363
  8, 388,  89, 377, 601, 387,  88, 375, 599
  9, 365, 601, 602, 366, 363, 599, 600, 364
 10, 601, 377, 378, 602, 599, 375, 376, 600
 11, 366, 602, 394,  74, 364, 600, 393,  75
 12, 602, 378,  86, 394, 600, 376,  87, 393
 13,  78, 389, 603, 367,  77, 388, 601, 365
 14, 389,  90, 379, 603, 388,  89, 377, 601
 15, 367, 603, 604, 368, 365, 601, 602, 366
 16, 603, 379, 380, 604, 601, 377, 378, 602
 17, 368, 604, 395,  73, 366, 602, 394,  74
 18, 604, 380,  85, 395, 602, 378,  86, 394
 19,  79, 390, 605, 369,  78, 389, 603, 367
 20, 390,  91, 381, 605, 389,  90, 379, 603
** ... 325 like lines cut
*Node
    625,           0.,           0.,           0.
*Nset, nset=LFILL-RefPt_, internal
625, 
*Nset, nset=_PickedSet67, internal, generate
   1,  624,    1
*Elset, elset=_PickedSet67, internal, generate
   1,  345,    1
** Section: FILL
*Solid Section, elset=_PickedSet67, material=FILL
,
*End Part
**  
*Part, name=LWEB
*Node
      1,   497.767059,         295.,   432.138855
      2,   504.852081,         295.,   401.980835
      3,   491.593933,         295.,        462.5
      4,   37.5614395,   743.843323,        462.5
      5,   74.8357391,   727.037292,        462.5
      6,   111.499054,   708.941833,        462.5
      7,   147.169556,   688.965759,        462.5
      8,   181.632858,   666.970947,        462.5
      9,   214.910049,   643.217896,        462.5
     10,    247.05452,   617.951843,        462.5
     11,   278.047699,   591.286316,        462.5
     12,   307.785095,   563.227539,        462.5
     13,   336.154968,   533.787109,        462.5
     14,   363.078125,   503.018005,        462.5
     15,   388.510101,    471.00528,        462.5
     16,   412.406342,   437.830383,        462.5
     17,   434.713074,   403.566559,        462.5
     18,   455.374634,   368.286255,        462.5
     19,   474.346222,   332.069122,        462.5
     20,           0.,         760.,        462.5
** ... 125 like lines cut
*Element, type=S3
1,  86,  93,  92
2, 111, 113, 112
3, 118,  94, 102
4,  80,  88,  87
*Element, type=S4R
  5,  48, 117,  52,  47
  6, 117,  17,  16,  53
  7,  51,  49,  50, 125
  8,  18,  17, 117,  51
  9,  51, 125,  19,  18
 10,   2,   1, 125,  50
 11,   3,  19, 125,   1
 12,  46,  47,  52,  54
 13,  56,  53,  16,  15
 14,  53,  56,  52, 117
 15,  55,  56,  59, 139
 16,  55,  57,  58,  54
 17,  54,  58,  45,  46
 18,  42,  43,  63, 137
 19, 137, 136,  41,  42
 20,  41, 136, 132,  40
 21,  71,  78,  70, 132
 22,  77,  38,  39,  70
 23,  84,  77, 142,  85
 24,  84,  37,  38,  77
** ... 97 like lines cut
*Node
    146,           0.,           0.,           0.
*Nset, nset=LWEB-RefPt_, internal
146, 
*Nset, nset=_PickedSet31, internal, generate
   1,  145,    1
*Elset, elset=_PickedSet31, internal, generate
   1,  121,    1
*Nset, nset=_PickedSet36, internal, generate
  3,  20,   1
*Elset, elset=_PickedSet36, internal
  6,  8,  9, 11, 13, 30, 31, 39, 50, 51, 52, 55, 56, 57, 63, 84
 89,
*Elset, elset=__PickedSurf35_SPOS, internal, generate
   1,  121,    1
*Surface, type=ELEMENT, name=_PickedSurf35, internal
__PickedSurf35_SPOS, SPOS
*Distribution, name=Ori-1-DiscOrient-1, location=ELEMENT, Table=Ori-1-DiscOrient-1_Table
** Description: Distribution generated from Discrete Orientation
,           1.,           0.,           0.,           0.,           1.,           0.
1, 0.0238699074834585, 0.0389984250068665, -0.998954057693481, 0.876302242279053, -0.481756955385208, 0.00213172216899693
2, 0.00979292578995228, 0.0211518798023462, -0.999728322029114, 0.909711420536041, -0.415241122245789, 0.000125641046906821
3, 0.0166523419320583, 0.0299642998725176, -0.999412298202515, 0.883293151855469, -0.468820720911026, 0.000661405501887202
4, 0.0303076580166817, 0.0437801815569401, -0.998581349849701, 0.828878879547119, -0.559427738189697, 0.000630425114650279
5, 0.12118723988533, 0.0780556127429008, -0.989556014537811, 0.563308238983154, -0.826238036155701, 0.00381307816132903
6, 0.0980525761842728, 0.0641586929559708, -0.99311089515686, 0.558727502822876, -0.829349756240845, 0.00158559752162546
7, 0.163577854633331, 0.084468737244606, -0.98290753364563, 0.476282835006714, -0.87928432226181, 0.0037005296908319
8, 0.110925406217575, 0.0652306601405144, -0.991685688495636, 0.514703929424286, -0.857367217540741, 0.00117690465413034
9, 0.127365589141846, 0.0666200593113899, -0.989615976810455, 0.470090270042419, -0.882617712020874, 0.00108454085420817
10, 0.161188349127769, 0.0740506276488304, -0.984141707420349, 0.457147389650345, -0.889355421066284, 0.00795568060129881
11, 0.152321577072144, 0.0706637874245644, -0.985801637172699, 0.433130621910095, -0.901328206062317, 0.0023167587351054
12, 0.102207720279694, 0.0723443552851677, -0.992129027843475, 0.586739301681519, -0.80977475643158, 0.0013976494083181
13, 0.0990009009838104, 0.0712485387921333, -0.992533326148987, 0.575726509094238, -0.817641377449036, -0.00126778229605407
14, 0.100370824337006, 0.0693024024367332, -0.992533624172211, 0.575489282608032, -0.817808628082275, 0.00109439727384597
15, 0.0769886672496796, 0.0622782967984676, -0.995085000991821, 0.642896592617035, -0.765950858592987, 0.00180249731056392
16, 0.0924708992242813, 0.0755061730742455, -0.992848455905914, 0.646709680557251, -0.762732923030853, 0.00222670705989003
17, 0.0907873958349228, 0.0701736435294151, -0.99339485168457, 0.628989815711975, -0.777409315109253, 0.00256766704842448
18, 0.070702463388443, 0.0711370855569839, -0.994957625865936, 0.725561916828156, -0.68815290927887, 0.0023577103856951
19, 0.0598589554429054, 0.0649279803037643, -0.996093034744263, 0.749080419540405, -0.662476539611816, 0.00183306948747486
20, 0.0513367839157581, 0.059909388422966, -0.996882855892181, 0.78881961107254, -0.614613711833954, 0.00368582038208842
** ... 101 like lines cut
*Orientation, name=Ori-1, system=RECTANGULAR
Ori-1-DiscOrient-1
3, 0.
** Section: WEB
*Shell Section, elset=_PickedSet31, material=WEB, orientation=Ori-1, offset=SPOS
35., 5
*End Part
**  
*Part, name=NARCH
*Node
      1,       610.25,           0.,  -481.970001
      2,       443.25,           0.,  -481.970001
      3,       443.25,           0.,  -501.970001
      4,       428.25,           0.,  -501.970001
      5,       428.25,           0.,  -526.969971
      6,       610.25,           0.,  -646.969971
      7,        568.5,           0.,  -481.970001
      8,       526.75,           0.,  -481.970001
      9,         485.,           0.,  -481.970001
     10,   464.649994,           0.,  -550.969971
     11,   501.049988,           0.,  -574.969971
     12,   537.450012,           0.,  -598.969971
     13,   573.849976,           0.,  -622.969971
     14,       610.25,           0.,  -605.719971
     15,       610.25,           0.,  -564.469971
     16,       610.25,           0.,  -523.219971
     17,   482.233307,           0.,  -535.171631
     18,   577.998657,           0.,  -592.206177
     19,   578.069397,           0.,  -555.038452
     20,   510.517975,           0.,  -558.563232
** ... 628 like lines cut
*Element, type=C3D8R
  1,  17,  25,  27,  20,  44,  52,  54,  47
  2,  23,  16,  15,  19,  50,  43,  42,  46
  3,  11,  10,  17,  20,  38,  37,  44,  47
  4,  10,   5,  24,  17,  37,  32,  51,  44
  5,  13,  12,  22,  18,  40,  39,  49,  45
  6,  21,  19,  18,  22,  48,  46,  45,  49
  7,  19,  15,  14,  18,  46,  42,  41,  45
  8,  18,  14,   6,  13,  45,  41,  33,  40
  9,  12,  11,  20,  22,  39,  38,  47,  49
 10,  16,  23,   7,   1,  43,  50,  34,  28
 11,  17,  24,   9,  25,  44,  51,  36,  52
 12,   8,   7,  23,  26,  35,  34,  50,  53
 13,  27,  21,  22,  20,  54,  48,  49,  47
 14,   8,  26,  25,   9,  35,  53,  52,  36
 15,  26,  23,  19,  21,  53,  50,  46,  48
 16,   5,   4,   3,  24,  32,  31,  30,  51
 17,  21,  27,  25,  26,  48,  54,  52,  53
 18,  24,   3,   2,   9,  51,  30,  29,  36
 19,  44,  52,  54,  47,  71,  79,  81,  74
 20,  50,  43,  42,  46,  77,  70,  69,  73
** ... 394 like lines cut
*Node
    649,           0.,           0.,           0.
*Nset, nset=NARCH-RefPt_, internal
649, 
*Nset, nset=_PickedSet37, internal, generate
   1,  648,    1
*Elset, elset=_PickedSet37, internal, generate
   1,  414,    1
** Section: NARCH
*Solid Section, elset=_PickedSet37, material=NARCH
,
*End Part
**  
*Part, name=NFILL
*Node
      1,        637.5,         295.,  -646.969971
      2,   538.859985,         295.,  -646.969971
      3,   538.859985,         295.,  -481.970001
      4,   501.589996,         295.,  -481.970001
      5,   495.679993,         295.,  -413.839996
      6,        461.5,         295.,  -387.480011
      7,   453.440002,         295.,  -362.329987
      8,   465.649994,         295.,   -346.48999
      9,        602.5,         295.,  -323.450012
     10,        622.5,         295.,  -323.450012
     11,        637.5,         295.,  -342.089996
     12,   604.619995,         295.,  -646.969971
     13,    571.73999,         295.,  -646.969971
     14,   538.859985,         295.,   -623.39856
     15,   538.859985,         295.,  -599.827148
     16,   538.859985,         295.,  -576.255737
     17,   538.859985,         295.,  -552.684265
     18,   538.859985,         295.,  -529.112854
     19,   538.859985,         295.,  -505.541443
     20,    498.63501,         295.,  -447.904999
** ... 706 like lines cut
*Element, type=C3D8R
  1,  45,  40,  32,  31, 111, 106,  98,  97
  2,  53,  61,  63,  66, 119, 127, 129, 132
  3,  56,  41,  25,  24, 122, 107,  91,  90
  4,  56,  61,  53,  41, 122, 127, 119, 107
  5,  24,  11,  10,  56,  90,  77,  76, 122
  6,   3,  58,  20,   4,  69, 124,  86,  70
  7,   6,  21,  33,  62,  72,  87,  99, 128
  8,   6,  62,   8,   7,  72, 128,  74,  73
  9,  15,  14,  48,  37,  81,  80, 114, 103
 10,  48,  14,   2,  13, 114,  80,  68,  79
 11,  45,  39,  49,  47, 111, 105, 115, 113
 12,  17,  38,  35,  18,  83, 104, 101,  84
 13,  29,  28,  44,  46,  95,  94, 110, 112
 14,  42,  44,  28,  27, 108, 110,  94,  93
 15,  60,  52,  54,  55, 126, 118, 120, 121
 16,  20,  58,  51,   5,  86, 124, 117,  71
 17,  30,  29,  46,  39,  96,  95, 112, 105
 18,  18,  35,  34,  19,  84, 101, 100,  85
 19,  48,  40,  45,  47, 114, 106, 111, 113
 20,  40,  12,   1,  32, 106,  78,  67,  98
** ... 470 like lines cut
*Node
    727,           0.,           0.,           0.
*Nset, nset=NFILL-RefPt_, internal
727, 
*Nset, nset=_PickedSet81, internal, generate
   1,  726,    1
*Elset, elset=_PickedSet81, internal, generate
   1,  490,    1
** Section: FILL
*Solid Section, elset=_PickedSet81, material=FILL
,
*End Part
**  
*Part, name=NWEB
*Node
      1,   503.199768,         295.,  -441.974518
      2,   501.587189,         295.,  -481.970001
      3,   504.852081,         295.,  -401.980835
      4,   31.5859146,   749.750977,  -36.9884453
      5,   63.0354233,   740.348328,   -61.241848
      6,   94.1764679,   729.440491,  -85.2576675
      7,   124.782791,   716.348328,   -108.86158
      8,   154.744934,    701.05957,  -131.969193
      9,   184.093994,   683.976196,  -154.604446
     10,   212.892487,   665.457092,  -176.815491
     11,   241.105988,    645.55481,  -198.575211
     12,   268.604553,   624.116455,  -219.782486
     13,   295.242767,   601.010071,   -240.32431
     14,   320.939056,   576.259399,  -260.138489
     15,   345.677032,   549.997742,  -279.214203
     16,   369.447357,   522.348816,  -297.546082
     17,   392.216888,   493.389374,  -315.108582
     18,   413.928131,   463.161987,   -331.85556
     19,   434.522217,   431.712067,   -347.73999
     20,   453.949951,   399.099365,  -362.723511
** ... 146 like lines cut
*Element, type=S3
1,  69,  74,  73
2,  55,  53,  54
3, 152,  68,  67
4, 162,  75,  70
5,  92,  86,  93
6,  58,  19,  63
7, 142, 107, 106
8, 159,  66, 156
*Element, type=S4R
  9,   1,  53,  52,   2
 10,   3,  22,  53,   1
 11,  22,  21,  54,  53
 12,  55,  54,  56,  57
 13,  50,  51,  55,  57
 14,  56,  54,  21,  20
 15,  19,  58,  56,  20
 16,  59,  58,  63, 144
 17,  49,  50,  57, 136
 18, 144,  63,  62, 143
 19,  58, 136,  57,  56
 20, 136,  58,  59,  61
 21,  59,  65,  60,  61
 22,  46,  47,  60, 152
 23, 136,  61,  48,  49
 24,  63,  19,  18,  62
 25, 159, 156,  71, 162
 26,  72,  77,  78,  71
 27, 140,  82,  78,  77
 28,  90,  83,  89, 164
** ... 115 like lines cut
*Node
    167,           0.,           0.,           0.
*Nset, nset=NWEB-RefPt_, internal
167, 
*Nset, nset=_PickedSet31, internal, generate
   1,  166,    1
*Elset, elset=_PickedSet31, internal, generate
   1,  143,    1
*Nset, nset=_PickedSet36, internal
  2, 35, 36, 37, 38, 39, 40, 41, 42, 43, 44, 45, 46, 47, 48, 49
 50, 51, 52
*Elset, elset=_PickedSet36, internal
   9,  13,  17,  22,  23,  42,  74,  76,  84,  88,  93, 100, 105, 106, 110, 112
 115, 128
*Elset, elset=__PickedSurf35_SPOS, internal, generate
   1,  143,    1
*Surface, type=ELEMENT, name=_PickedSurf35, internal
__PickedSurf35_SPOS, SPOS
*Distribution, name=Ori-1-DiscOrient, location=ELEMENT, Table=Ori-1-DiscOrient_Table
** Description: Distribution generated from Discrete Orientation
,           1.,           0.,           0.,           0.,           1.,           0.
1, -0.0401320829987526, -0.042523056268692, -0.998289167881012, 0.721478700637817, -0.692436456680298, 0.00049090915126726
2, -0.0377225019037724, -0.0207532551139593, -0.999072730541229, 0.459146022796631, -0.88836008310318, 0.00111726264003664
3, -0.0436607301235199, -0.041052658110857, -0.998202621936798, 0.681115448474884, -0.732176005840302, 0.000320346851367503
4, -0.0404203720390797, -0.0422463677823544, -0.998289346694946, 0.721462666988373, -0.692453444004059, 9.20073289307766e-05
5, -0.0240413565188646, -0.034131396561861, -0.999128103256226, 0.825598061084747, -0.564258456230164, -0.000590083247516304
6, -0.0494314096868038, -0.0348439738154411, -0.998169541358948, 0.559609591960907, -0.828755438327789, 0.00121706852223724
7, -0.0144856115803123, -0.0246707443147898, -0.999590694904327, 0.884509742259979, -0.466520041227341, -0.00130380096379668
8, -0.0533881634473801, -0.0495169572532177, -0.997345328330994, 0.683535039424896, -0.729917645454407, -0.000350305839674547
9, -0.0335614420473576, -0.0160402972251177, -0.999307990074158, 0.418137669563293, -0.90838348865509, 0.000537812302354723
10, -0.0335558243095875, -0.0160032659769058, -0.999308705329895, 0.418076723814011, -0.90841156244278, 0.000508994271513075
11, -0.0400988906621933, -0.0214518085122108, -0.998965442180634, 0.466862112283707, -0.884330153465271, 0.000250086828600615
12, -0.04281872138381, -0.0255879759788513, -0.998755097389221, 0.506415009498596, -0.862289905548096, 0.000380682438844815
13, -0.0428829938173294, -0.0254785493016243, -0.998755216598511, 0.506409525871277, -0.862293064594269, 0.000253937003435567
14, -0.0503290630877018, -0.0297950953245163, -0.998288154602051, 0.507866084575653, -0.861436009407043, 0.000106325918750372
15, -0.0535635389387608, -0.0350236892700195, -0.99795013666153, 0.554087996482849, -0.832457959651947, -0.000524242117535323
16, -0.0576002635061741, -0.0430962070822716, -0.997409164905548, 0.599674046039581, -0.800244450569153, -5.40181354153901e-05
17, -0.050554171204567, -0.0331154800951481, -0.998172104358673, 0.542184591293335, -0.840259253978729, 0.000416658644098788
18, -0.0495439432561398, -0.0391600131988525, -0.998003900051117, 0.604710817337036, -0.796444118022919, 0.00123146665282547
19, -0.0458375811576843, -0.0302426926791668, -0.998490989208221, 0.552492797374725, -0.833517670631409, -0.000117293566290755
20, -0.0562782473862171, -0.0410012379288673, -0.997572898864746, 0.605926513671875, -0.795519232749939, -0.00148681702557951
** ... 123 like lines cut
*Orientation, name=Ori-1, system=RECTANGULAR
Ori-1-DiscOrient
3, 0.
** Section: WEB
*Shell Section, elset=_PickedSet31, material=WEB, orientation=Ori-1, offset=SPOS
35., 5
*End Part
**  
*Part, name=RARCH-merged
*Node
      1,           0.,         780.,           0.
      2,           0.,         700.,           0.
      3,   16.3747025,   697.296692,           0.
      4,   40.9367561,   713.190491,           0.
      5,   40.9367561,   753.223572,           0.
      6,   16.3747025,   757.312866,           0.
      7,   16.3747025,    777.31781,           0.
      8,   527.921204,         295.,    407.14151
      9,   534.027771,         295.,   399.222565
     10,   517.049622,         295.,   386.128723
     11,   526.210083,         295.,   374.250793
     12,   492.031464,         295.,   347.891663
     13,   465.654846,         295.,   346.492218
     14,   459.547852,         295.,   354.410858
     15,   534.027771,         295.,  -399.222565
     16,   527.921204,         295.,   -407.14151
     17,   517.049622,         295.,  -386.128723
     18,   526.210083,         295.,  -374.250793
     19,   492.031464,         295.,  -347.891663
     20,   465.654846,         295.,  -346.492218
** ... 1032 like lines cut
*Element, type=C3D8R
  1,   7,   1,  42,   6,  70,  71, 679, 122
  2,   4,   5, 676,   3, 174, 148, 846, 200
  3, 675,  43,  44, 676, 845, 678, 677, 846
  4,   5,   6, 675, 676, 148, 122, 845, 846
  5,   2,   3, 676,  44, 226, 200, 846, 677
  6,   6,  42,  43, 675, 122, 679, 678, 845
  7,  70,  71, 679, 122,  69,  72, 682, 121
  8, 174, 148, 846, 200, 173, 147, 848, 199
  9, 845, 678, 677, 846, 847, 681, 680, 848
 10, 148, 122, 845, 846, 147, 121, 847, 848
 11, 226, 200, 846, 677, 225, 199, 848, 680
 12, 122, 679, 678, 845, 121, 682, 681, 847
 13,  69,  72, 682, 121,  68,  73, 685, 120
 14, 173, 147, 848, 199, 172, 146, 850, 198
 15, 847, 681, 680, 848, 849, 684, 683, 850
 16, 147, 121, 847, 848, 146, 120, 849, 850
 17, 225, 199, 848, 680, 224, 198, 850, 683
 18, 121, 682, 681, 847, 120, 685, 684, 849
 19,  68,  73, 685, 120,  67,  74, 688, 119
 20, 172, 146, 850, 198, 171, 145, 852, 197
** ... 628 like lines cut
*Nset, nset=_PickedSet4, internal, generate
    1,  1052,     1
*Elset, elset=_PickedSet4, internal, generate
   1,  648,    1
** Section: RIB-ARCH
*Solid Section, elset=_PickedSet4, material=RIB-ARCH
,
*End Part
**  
*Part, name=TARCH-merged
*Node
      1,        602.5,         780.,           0.
      2,        622.5,         780.,           0.
      3,        622.5,         760.,           0.
      4,        637.5,         760.,           0.
      5,        637.5,         720.,           0.
      6,        622.5,         700.,           0.
      7,        602.5,         700.,           0.
      8,        587.5,         720.,           0.
      9,        587.5,         760.,           0.
     10,        602.5,         760.,           0.
     11,        602.5,         295.,   379.580017
     12,        602.5,         295.,   398.527466
     13,        622.5,         295.,   323.447662
     14,        602.5,         295.,   323.447662
     15,        637.5,         295.,    342.08725
     16,        637.5,         295.,   379.580017
     17,        622.5,         295.,   379.580017
     18,        622.5,         295.,   398.420441
     19,        587.5,         295.,    342.08725
     20,        587.5,         295.,   379.580017
** ... 472 like lines cut
*Element, type=C3D8R
  1,   3,   2,   1,  10, 145, 164,  49,  50
  2,   7,   6,   5, 411,  87,  88, 107, 417
  3,   7, 411, 412,   8,  87, 417, 418, 201
  4,   3, 411,   5,   4, 145, 417, 107, 126
  5,   3,  10, 412, 411, 145,  50, 418, 417
  6,   8, 412,  10,   9, 201, 418,  50, 202
  7, 145, 164,  49,  50, 146, 165,  48,  51
  8,  87,  88, 107, 417,  86,  89, 108, 419
  9,  87, 417, 418, 201,  86, 419, 420, 200
 10, 145, 417, 107, 126, 146, 419, 108, 127
 11, 145,  50, 418, 417, 146,  51, 420, 419
 12, 201, 418,  50, 202, 200, 420,  51, 203
 13, 146, 165,  48,  51, 147, 166,  47,  52
 14,  86,  89, 108, 419,  85,  90, 109, 421
 15,  86, 419, 420, 200,  85, 421, 422, 199
 16, 146, 419, 108, 127, 147, 421, 109, 128
 17, 146,  51, 420, 419, 147,  52, 422, 421
 18, 200, 420,  51, 203, 199, 422,  52, 204
 19, 147, 166,  47,  52, 148, 167,  46,  53
 20,  85,  90, 109, 421,  84,  91, 110, 423
** ... 220 like lines cut
*Nset, nset=_PickedSet3, internal, generate
   1,  492,    1
*Elset, elset=_PickedSet3, internal, generate
   1,  240,    1
** Section: RIB-ARCH
*Solid Section, elset=_PickedSet3, material=RIB-ARCH
,
*End Part
**  
*Part, name=TWEB-merged
*Node
      1,   517.061035,         295.,  -386.141266
      2,        602.5,         295.,  -379.591278
      3,        602.5,         760.,           0.
      4,   16.3783398,   757.277893,           0.
      5,        602.5,         295.,   379.591278
      6,   517.061035,         295.,   386.141266
      7,   559.745178,         295.,  -382.532623
      8,        602.5,   333.260681,  -365.314758
      9,        602.5,    370.80249,  -349.242432
     10,        602.5,   407.551849,  -331.432343
     11,        602.5,   443.433411,  -311.932983
     12,        602.5,   478.361847,  -290.773834
     13,        602.5,       512.25,  -267.985779
     14,        602.5,   545.036255,  -243.638718
     15,        602.5,   576.682495,  -217.826813
     16,        602.5,    607.15155,  -190.635361
     17,        602.5,   636.317322,  -162.051514
     18,        602.5,   663.965332,  -131.998398
     19,        602.5,   689.872192,  -100.432655
     20,        602.5,   714.173523,  -67.6116486
** ... 289 like lines cut
*Element, type=S3
1, 111, 117, 114
2, 120, 121, 116
3, 194, 135, 143
4, 193, 129, 128
138, 248, 256, 255
139, 306, 240, 309
140, 253, 252, 246
141, 235, 240, 234
142, 268, 259, 269
143, 304, 222, 228
*Element, type=S4R
  5,  89,  54,   1,   7
  6,   9,  10,  92,  90
  7,  90,  92,  91,  89
  8,  10,  11,  96,  92
  9,  11,  12, 100,  96
 10,  12,  13, 104, 100
 11,  13,  14, 110, 104
 12,  14,  15, 115, 110
 13,  16,  17, 126, 119
 14, 138, 126,  17,  18
 15,  19, 151, 138,  18
 16, 150, 153, 139, 178
 17,  20, 163, 151,  19
 18, 164, 165, 153, 150
 19, 183, 182,  23,  24
 20,  25, 166, 183,  24
 21, 167, 166,  25,  26
 22, 182, 183, 165, 164
 23, 168, 156, 157, 167
 24, 156, 159, 144, 145
** ... 246 like lines cut
*Nset, nset=_PickedSet3, internal, generate
   1,  309,    1
*Elset, elset=_PickedSet3, internal, generate
   1,  276,    1
*Nset, nset=_PickedSet7, internal
  3,  5, 75, 76, 77, 78, 79, 80, 81, 82, 83, 84, 85, 86, 87, 88
*Elset, elset=_PickedSet7, internal
 147, 192, 193, 222, 223, 226, 231, 232, 236, 239, 243, 245, 246, 248, 264
*Nset, nset=_PickedSet10, internal
  2,  3,  8,  9, 10, 11, 12, 13, 14, 15, 16, 17, 18, 19, 20, 21
*Elset, elset=_PickedSet10, internal
  6,  8,  9, 10, 11, 12, 13, 14, 15, 17, 39, 40, 41, 42, 43
*Elset, elset=__PickedSurf6_SPOS, internal, generate
 138,  276,    1
*Surface, type=ELEMENT, name=_PickedSurf6, internal
__PickedSurf6_SPOS, SPOS
*Elset, elset=__PickedSurf9_SPOS, internal, generate
   1,  137,    1
*Surface, type=ELEMENT, name=_PickedSurf9, internal
__PickedSurf9_SPOS, SPOS
*Distribution, name=Ori-2-DiscOrient, location=ELEMENT, Table=Ori-2-DiscOrient_Table
** Description: Distribution generated from Discrete Orientation
,           1.,           0.,           0.,           0.,           1.,           0.
1, -0.996435642242432, 0.0533012337982655, -0.0653849244117737, 0.00021981839381624, -0.773448824882507, -0.633858799934387
2, -0.998055875301361, 0.0412646643817425, -0.0467102341353893, 4.83371986774728e-05, -0.748929023742676, -0.662650287151337
3, -0.999403357505798, 0.0269933510571718, -0.021546171978116, 0.00200394401326776, -0.577467620372772, -0.816411137580872
4, -0.998744666576385, 0.0355398952960968, -0.0352989993989468, 0.0024821637198329, -0.668718159198761, -0.74351179599762
5, -0.997169971466064, 0.0263021346181631, -0.0704290866851807, 0.000450801831902936, -0.934695243835449, -0.355449855327606
6, -0.997564971446991, 0.0304477959871292, -0.0627456232905388, -0.00063080299878493, -0.903571784496307, -0.428436279296875
7, -0.9980628490448, 0.0261985827237368, -0.0564290508627892, -0.000636776967439801, -0.911267101764679, -0.41181555390358
8, -0.99744176864624, 0.0341368429362774, -0.0628074482083321, -0.000566729286219925, -0.882359325885773, -0.470576077699661
9, -0.997371017932892, 0.0375353507697582, -0.0619861073791981, -0.000513459555804729, -0.859032571315765, -0.511920869350433
10, -0.997365415096283, 0.0403828658163548, -0.0602620840072632, -0.000364138890290633, -0.833500266075134, -0.552519023418427
11, -0.997454822063446, 0.0423708632588387, -0.057346548885107, -0.000241345696849748, -0.806283175945282, -0.591529667377472
12, -0.997684001922607, 0.0428756289184093, -0.0528042167425156, -0.00018857599934563, -0.778054535388947, -0.628196775913239
13, -0.998472511768341, 0.0386206731200218, -0.0395103469491005, -0.000143034238135442, -0.716916680335999, -0.697158813476563
14, -0.998836398124695, 0.0354656986892223, -0.0326836258172989, -0.000127471663290635, -0.679614901542664, -0.733569025993347
15, -0.999141275882721, 0.0320359766483307, -0.0262784734368324, -0.000130441680084914, -0.636637806892395, -0.771162986755371
16, -0.999141156673431, 0.0322624258697033, -0.0260041691362858, -0.000485836411826313, -0.636626422405243, -0.771172285079956
17, -0.999462008476257, 0.0263786986470222, -0.0194938592612743, -8.26045870780945e-05, -0.596345663070679, -0.80272775888443
18, -0.999461948871613, 0.0264223758131266, -0.0194350630044937, -0.000155808491399512, -0.596343696117401, -0.802729249000549
19, -0.999978125095367, 0.0055078431032598, -0.00366228283382952, -4.33609375249944e-06, -0.554239392280579, -0.832357287406921
20, -0.999978125095367, 0.00550598697736859, -0.00366506981663406,           0., -0.554239451885223, -0.832357287406921
** ... 117 like lines cut
*Orientation, name=Ori-2, system=RECTANGULAR
Ori-2-DiscOrient
3, 0.
** Region: (WEB:Picked), (Material Orientation:Picked)
*Elset, elset=_I1, internal, generate
   1,  137,    1
** Section: WEB
*Shell Section, elset=_I1, material=WEB, orientation=Ori-2, offset=SPOS
35., 5
*Distribution, name=Ori-1-DiscOrient-2, location=ELEMENT, Table=Ori-1-DiscOrient-2_Table
** Description: Distribution generated from Discrete Orientation
,           1.,           0.,           0.,           0.,           1.,           0.
138, 0.999403476715088, -0.0270350947976112, -0.0214885044842958, 0.00193252693861723, -0.577472150325775, 0.816408097743988
139, 0.998745858669281, -0.0359200946986675, -0.0348778404295444, 0.0019150284351781, -0.668704807758331, 0.743525505065918
140, 0.999141216278076, -0.0319134294986725, -0.0264286324381828, 6.29128408036195e-05, -0.636649549007416, 0.771153330802917
141, 0.998328447341919, -0.0395581945776939, -0.0421365015208721, 0.00198668171651661, -0.705141305923462, 0.70906400680542
142, 0.999561250209808, -0.0242407973855734, -0.0170160364359617, 0.00537507794797421, -0.416518926620483, 0.909111142158508
143, 0.997671842575073, -0.0430082641541958, -0.0529277510941029, -0.00015759289090056, -0.777533829212189, 0.62884122133255
144, 0.997251272201538, -0.0291653834283352, -0.0681130141019821, 0.000333263567881659, -0.917496740818024, 0.397743225097656
145, 0.997095346450806, -0.0327846333384514, -0.068747267127037, 0.00101664569228888, -0.896807312965393, 0.442420363426208
146, 0.997847318649292, -0.0298780594021082, -0.058378204703331, 4.50987317890394e-05, -0.889872610569, 0.456209123134613
147, 0.997441470623016, -0.034439105540514, -0.0626458451151848, -0.000909837894141674, -0.882355570793152, 0.470582336187363
148, 0.997169256210327, -0.0263048186898232, -0.0704380422830582, 0.000450904743047431, -0.934697985649109, 0.355442732572556
149, 0.99639892578125, -0.0394596830010414, -0.0750480070710182, -0.000380466633941978, -0.887180924415588, 0.461421728134155
150, 0.996877014636993, -0.0397190861403942, -0.0682546347379684, -0.00130464963149279, -0.87247359752655, 0.488659560680389
151, 0.996614992618561, -0.0470248311758041, -0.0674340426921844, 0.000885361165273935, -0.814066708087921, 0.580770611763
152, 0.997037351131439, -0.0518354959785938, -0.056829109787941, 0.00510418601334095, -0.692606747150421, 0.721297204494476
153, 0.996752560138702, -0.0527845919132233, -0.0608122125267982, 0.00192694005090743, -0.739341795444489, 0.673327565193176
154, 0.996435403823853, -0.053093072026968, -0.0655563473701477, 0.000487194483866915, -0.773473024368286, 0.633829057216644
155, 0.99780410528183, -0.0482004173099995, -0.0454266928136349, 0.00204511871561408, -0.663109362125397, 0.748519718647003
156, 0.999651551246643, -0.0218266397714615, -0.0148419486358762, 0.00278739375062287, -0.471864968538284, 0.881666481494904
157, 0.999997317790985, 0.00193795724771917, 0.00128524051979184, -0.000559053674805909, -0.336130738258362, 0.941815197467804
** ... 119 like lines cut
*Orientation, name=Ori-1, system=RECTANGULAR
Ori-1-DiscOrient-2
3, 0.
** Region: (WEB:Picked), (Material Orientation:Picked)
*Elset, elset=_I2, internal, generate
 138,  276,    1
** Section: WEB
*Shell Section, elset=_I2, material=WEB, orientation=Ori-1, offset=SPOS
35., 5
*End Part
**  
**
** ASSEMBLY
**
*Assembly, name=Assembly
**  
*Instance, name=LARCH-1, part=LARCH
          0.,           0.,        472.5
*End Instance
**  
*Instance, name=NARCH-1, part=NARCH
*End Instance
**  
*Instance, name=NWEB-1, part=NWEB
*End Instance
**  
*Instance, name=LWEB-1, part=LWEB
*End Instance
**  
*Instance, name=TWEB-merged-1, part=TWEB-merged
*End Instance
**  
*Instance, name=TARCH-merged-1, part=TARCH-merged
*End Instance
**  
*Instance, name=RARCH-merged-2, part=RARCH-merged
*End Instance
**  
*Instance, name=LFILL-1, part=LFILL
*End Instance
**  
*Instance, name=NFILL-1, part=NFILL
*End Instance
**  
*Nset, nset=_PickedSet72, internal, instance=LARCH-1, generate
  1,  12,   1
*Nset, nset=_PickedSet72, internal, instance=NARCH-1, generate
 622,  648,    1
*Nset, nset=_PickedSet72, internal, instance=LWEB-1, generate
 20,  31,   1
*Nset, nset=_PickedSet72, internal, instance=NWEB-1, generate
 23,  35,   1
*Nset, nset=_PickedSet72, internal, instance=RARCH-merged-2
   1,   2,  22,  23,  24,  25,  26,  32,  33,  34,  35,  36,  42,  43,  44, 837
 838, 841, 842
*Elset, elset=_PickedSet72, internal, instance=LARCH-1, generate
 1,  6,  1
*Elset, elset=_PickedSet72, internal, instance=NARCH-1, generate
 397,  414,    1
*Elset, elset=_PickedSet72, internal, instance=LWEB-1
  28,  57,  58,  59,  64,  76, 111, 113, 114, 115, 117
*Elset, elset=_PickedSet72, internal, instance=NWEB-1
  41,  46,  48,  59,  61,  68,  72,  73,  74, 131, 133, 137
*Elset, elset=_PickedSet72, internal, instance=RARCH-merged-2
 325, 326, 327, 328, 329, 330, 487, 488, 489, 490, 491, 492
*Nset, nset=_PickedSet110, internal, instance=LARCH-1
   1,   2,   8,   9,  10,  13,  14,  20,  21,  22,  25,  26,  32,  33,  34,  37
  38,  44,  45,  46,  49,  50,  56,  57,  58,  61,  62,  68,  69,  70,  73,  74
  80,  81,  82,  85,  86,  92,  93,  94,  97,  98, 104, 105, 106, 109, 110, 116
 117, 118, 121, 122, 128, 129, 130, 133, 134, 140, 141, 142, 145, 146, 152, 153
 154, 157, 158, 164, 165, 166, 169, 170, 176, 177, 178, 181, 182, 188, 189, 190
 193, 194, 200, 201, 202, 205, 206, 212, 213, 214, 217, 218, 224, 225, 226, 229
 230, 236, 237, 238, 241, 242, 248, 249, 250, 253, 254, 260, 261, 262, 265, 266
 272, 273, 274
*Elset, elset=_PickedSet110, internal, instance=LARCH-1
   1,   3,   6,   7,   9,  12,  13,  15,  18,  19,  21,  24,  25,  27,  30,  31
  33,  36,  37,  39,  42,  43,  45,  48,  49,  51,  54,  55,  57,  60,  61,  63
  66,  67,  69,  72,  73,  75,  78,  79,  81,  84,  85,  87,  90,  91,  93,  96
  97,  99, 102, 103, 105, 108, 109, 111, 114, 115, 117, 120, 121, 123, 126, 127
 129, 132
*Nset, nset=_PickedSet124, internal, instance=LWEB-1, generate
 1,  3,  1
*Nset, nset=_PickedSet124, internal, instance=TWEB-merged-1
  5,  6, 55
*Elset, elset=_PickedSet124, internal, instance=LWEB-1
 10, 11
*Elset, elset=_PickedSet124, internal, instance=TWEB-merged-1
 148, 248
*Nset, nset=_PickedSet134, internal, instance=NWEB-1, generate
 1,  3,  1
*Nset, nset=_PickedSet134, internal, instance=TWEB-merged-1
 1, 2, 7
*Elset, elset=_PickedSet134, internal, instance=NWEB-1
  9, 10
*Elset, elset=_PickedSet134, internal, instance=TWEB-merged-1
  5, 40
*Nset, nset=_PickedSet137, internal, instance=LFILL-1, generate
   1,  624,    1
*Nset, nset=_PickedSet137, internal, instance=NFILL-1, generate
   1,  726,    1
*Elset, elset=_PickedSet137, internal, instance=LFILL-1, generate
   1,  345,    1
*Elset, elset=_PickedSet137, internal, instance=NFILL-1, generate
   1,  490,    1
*Nset, nset=_PickedSet138, internal, instance=NARCH-1, generate
  1,  27,   1
*Nset, nset=_PickedSet138, internal, instance=NFILL-1, generate
 661,  726,    1
*Nset, nset=_PickedSet138, internal, instance=LFILL-1
   1,   2,   3,   4,   9,  10,  13,  14,  17,  18,  21,  22,  25,  26,  29,  30
  33,  34,  37,  58,  59,  60,  61,  62,  63,  94, 132, 133, 134, 135, 136, 137
 156, 157, 158, 198, 199, 359, 360
*Elset, elset=_PickedSet138, internal, instance=NARCH-1, generate
  1,  18,   1
*Elset, elset=_PickedSet138, internal, instance=NFILL-1, generate
 442,  490,    1
*Elset, elset=_PickedSet138, internal, instance=LFILL-1
   1,   2,   3,   4,   5,   6,  43,  44,  57,  64,  71,  72,  73,  74,  99, 100
 101, 102, 127, 134, 141, 142, 143
*Nset, nset=_PickedSet140, internal, instance=LFILL-1
   1,   2,   3,   5,   6,   7,   9,  11,  37,  38,  39,  40,  41,  43,  45,  58
  59,  60,  64,  65,  66,  76,  77,  78,  79,  80,  81,  82,  83,  84,  85,  86
  87,  88,  89,  90,  91,  92,  93, 102, 103, 104, 105, 106, 107, 202, 203, 204
 205, 206, 207, 208, 209, 210, 211, 212, 213, 214, 215, 216, 217, 218, 219, 220
 221, 222, 223, 224, 225, 226, 227, 228, 229, 230, 241, 242, 243, 244, 245, 246
 247, 248, 266, 267, 268, 269, 270, 271, 272, 375, 376, 377, 378, 379, 380, 381
 382, 383, 384, 385, 386, 387, 388, 389, 390, 391, 392, 471, 472, 473, 474, 475
 476, 477, 478, 479, 480, 481, 482, 483, 484, 501, 502, 503, 504, 505, 506, 507
*Nset, nset=_PickedSet140, internal, instance=NFILL-1
   1,   2,  11,  12,  13,  24,  25,  26,  27,  28,  29,  30,  31,  32,  67,  68
  77,  78,  79,  90,  91,  92,  93,  94,  95,  96,  97,  98, 133, 134, 143, 144
 145, 156, 157, 158, 159, 160, 161, 162, 163, 164, 199, 200, 209, 210, 211, 222
 223, 224, 225, 226, 227, 228, 229, 230, 265, 266, 275, 276, 277, 288, 289, 290
 291, 292, 293, 294, 295, 296, 331, 332, 341, 342, 343, 354, 355, 356, 357, 358
 359, 360, 361, 362, 397, 398, 407, 408, 409, 420, 421, 422, 423, 424, 425, 426
 427, 428, 463, 464, 473, 474, 475, 486, 487, 488, 489, 490, 491, 492, 493, 494
 529, 530, 539, 540, 541, 552, 553, 554, 555, 556, 557, 558, 559, 560, 595, 596
 605, 606, 607, 618, 619, 620, 621, 622, 623, 624, 625, 626, 661, 662, 671, 672
 673, 684, 685, 686, 687, 688, 689, 690, 691, 692
*Elset, elset=_PickedSet140, internal, instance=LFILL-1
   1,   2,   4,   6,   7,   8,  10,  12,  13,  14,  16,  18,  19,  20,  22,  24
  25,  26,  28,  30,  31,  32,  34,  36,  37,  38,  40,  42,  43,  45,  47,  49
  51,  53,  55, 143, 146, 149, 152, 155, 158, 161, 162, 163, 164, 165, 166, 167
 168, 169, 170, 171, 172, 173, 174, 175, 176, 177, 178, 179, 180, 181, 182, 183
 184, 185, 186, 187, 188, 189, 190, 191, 192, 193, 210, 211, 212, 213, 214, 215
 216, 217, 226, 229, 232, 235, 238, 241, 244, 247
*Elset, elset=_PickedSet140, internal, instance=NFILL-1
   1,   3,   5,  10,  13,  14,  17,  20,  27,  28,  30,  31,  50,  52,  54,  59
  62,  63,  66,  69,  76,  77,  79,  80,  99, 101, 103, 108, 111, 112, 115, 118
 125, 126, 128, 129, 148, 150, 152, 157, 160, 161, 164, 167, 174, 175, 177, 178
 197, 199, 201, 206, 209, 210, 213, 216, 223, 224, 226, 227, 246, 248, 250, 255
 258, 259, 262, 265, 272, 273, 275, 276, 295, 297, 299, 304, 307, 308, 311, 314
 321, 322, 324, 325, 344, 346, 348, 353, 356, 357, 360, 363, 370, 371, 373, 374
 393, 395, 397, 402, 405, 406, 409, 412, 419, 420, 422, 423, 442, 444, 446, 451
 454, 455, 458, 461, 468, 469, 471, 472
*Nset, nset=_PickedSet141, internal, instance=LARCH-1, generate
   1,  276,    1
*Nset, nset=_PickedSet141, internal, instance=NARCH-1, generate
   1,  648,    1
*Nset, nset=_PickedSet141, internal, instance=TARCH-merged-1, generate
   1,  492,    1
*Nset, nset=_PickedSet141, internal, instance=RARCH-merged-2, generate
    1,  1052,     1
*Elset, elset=_PickedSet141, internal, instance=LARCH-1, generate
   1,  132,    1
*Elset, elset=_PickedSet141, internal, instance=NARCH-1, generate
   1,  414,    1
*Elset, elset=_PickedSet141, internal, instance=TARCH-merged-1, generate
   1,  240,    1
*Elset, elset=_PickedSet141, internal, instance=RARCH-merged-2, generate
   1,  648,    1
*Nset, nset=_PickedSet142, internal, instance=NWEB-1, generate
   1,  166,    1
*Nset, nset=_PickedSet142, internal, instance=LWEB-1, generate
   1,  145,    1
*Nset, nset=_PickedSet142, internal, instance=TWEB-merged-1, generate
   1,  309,    1
*Elset, elset=_PickedSet142, internal, instance=NWEB-1, generate
   1,  143,    1
*Elset, elset=_PickedSet142, internal, instance=LWEB-1, generate
   1,  121,    1
*Elset, elset=_PickedSet142, internal, instance=TWEB-merged-1, generate
   1,  276,    1
*Nset, nset=_PickedSet143, internal, instance=NWEB-1, generate
   1,  166,    1
*Nset, nset=_PickedSet143, internal, instance=LWEB-1, generate
   1,  145,    1
*Nset, nset=_PickedSet143, internal, instance=TWEB-merged-1, generate
   1,  309,    1
*Elset, elset=_PickedSet143, internal, instance=NWEB-1, generate
   1,  143,    1
*Elset, elset=_PickedSet143, internal, instance=LWEB-1, generate
   1,  121,    1
*Elset, elset=_PickedSet143, internal, instance=TWEB-merged-1, generate
   1,  276,    1
*Elset, elset=__PickedSurf84_S4, internal, instance=TARCH-merged-1, generate
 126,  240,    6
*Elset, elset=__PickedSurf84_S5, internal, instance=TARCH-merged-1, generate
   6,  120,    6
*Elset, elset=__PickedSurf84_S6, internal, instance=RARCH-merged-2, generate
 166,  322,    6
*Elset, elset=__PickedSurf84_S3, internal, instance=RARCH-merged-2, generate
   4,  160,    6
*Surface, type=ELEMENT, name=_PickedSurf84, internal
__PickedSurf84_S4, S4
__PickedSurf84_S5, S5
__PickedSurf84_S6, S6
__PickedSurf84_S3, S3
*Elset, elset=__PickedSurf85_SNEG, internal, instance=TWEB-merged-1, generate
   1,  276,    1
*Surface, type=ELEMENT, name=_PickedSurf85, internal
__PickedSurf85_SNEG, SNEG
*Elset, elset=__PickedSurf86_S5, internal, instance=NARCH-1
  10,  18,  28,  36,  46,  54,  64,  72,  82,  90, 100, 108, 118, 126, 136, 144
 154, 162, 172, 180, 190, 198, 208, 216, 226, 234, 244, 252, 262, 270, 280, 288
 298, 306, 316, 324, 334, 342, 352, 360, 370, 378, 388, 396, 406, 414
*Elset, elset=__PickedSurf86_S3, internal, instance=NARCH-1, generate
  12,  408,   18
*Elset, elset=__PickedSurf86_S6, internal, instance=NARCH-1, generate
  14,  410,   18
*Elset, elset=__PickedSurf86_S4, internal, instance=RARCH-merged-2, generate
 329,  485,    6
*Surface, type=ELEMENT, name=_PickedSurf86, internal
__PickedSurf86_S5, S5
__PickedSurf86_S3, S3
__PickedSurf86_S6, S6
__PickedSurf86_S4, S4
*Elset, elset=__PickedSurf113_S6, internal, instance=LARCH-1, generate
   4,  130,    6
*Elset, elset=__PickedSurf113_S3, internal, instance=RARCH-merged-2, generate
 492,  648,    6
*Surface, type=ELEMENT, name=_PickedSurf113, internal
__PickedSurf113_S6, S6
__PickedSurf113_S3, S3
*Elset, elset=__PickedSurf114_SNEG, internal, instance=LWEB-1, generate
   1,  121,    1
*Surface, type=ELEMENT, name=_PickedSurf114, internal
__PickedSurf114_SNEG, SNEG
*Elset, elset=__PickedSurf121_S4, internal, instance=LFILL-1, generate
 169,  209,    8
*Elset, elset=__PickedSurf121_S3, internal, instance=LFILL-1
 210, 218
*Elset, elset=__PickedSurf121_S2, internal, instance=LFILL-1
 226, 227, 228, 250, 258, 266, 267, 268, 269, 298, 299, 300, 301, 330, 338
*Surface, type=ELEMENT, name=_PickedSurf121, internal
__PickedSurf121_S4, S4
__PickedSurf121_S3, S3
__PickedSurf121_S2, S2
*Elset, elset=__PickedSurf122_S2, internal, instance=LARCH-1, generate
 127,  132,    1
*Elset, elset=__PickedSurf122_S2, internal, instance=TARCH-merged-1, generate
 115,  120,    1
*Elset, elset=__PickedSurf122_S2, internal, instance=RARCH-merged-2
 157, 158, 159, 160, 161, 162, 643, 644, 645, 646, 647, 648
*Surface, type=ELEMENT, name=_PickedSurf122, internal
__PickedSurf122_S2, S2
*Elset, elset=__PickedSurf123_S4, internal, instance=LFILL-1, generate
 169,  209,    8
*Elset, elset=__PickedSurf123_S3, internal, instance=LFILL-1
 210, 218
*Elset, elset=__PickedSurf123_S2, internal, instance=LFILL-1
 226, 227, 228, 250, 258, 266, 267, 268, 269, 298, 299, 300, 301, 330, 338
*Surface, type=ELEMENT, name=_PickedSurf123, internal
__PickedSurf123_S4, S4
__PickedSurf123_S3, S3
__PickedSurf123_S2, S2
*Elset, elset=__PickedSurf130_SNEG, internal, instance=NWEB-1, generate
   1,  143,    1
*Surface, type=ELEMENT, name=_PickedSurf130, internal
__PickedSurf130_SNEG, SNEG
*Elset, elset=__PickedSurf131_S1, internal, instance=NFILL-1, generate
  1,  49,   1
*Surface, type=ELEMENT, name=_PickedSurf131, internal
__PickedSurf131_S1, S1
*Elset, elset=__PickedSurf132_S2, internal, instance=TARCH-merged-1, generate
 235,  240,    1
*Elset, elset=__PickedSurf132_S2, internal, instance=RARCH-merged-2
 319, 320, 321, 322, 323, 324, 481, 482, 483, 484, 485, 486
*Surface, type=ELEMENT, name=_PickedSurf132, internal
__PickedSurf132_S2, S2
*Elset, elset=__PickedSurf133_S1, internal, instance=NFILL-1, generate
  1,  49,   1
*Surface, type=ELEMENT, name=_PickedSurf133, internal
__PickedSurf133_S1, S1
*Elset, elset=__PickedSurf135_S3, internal, instance=NFILL-1, generate
   9,  450,   49
*Elset, elset=__PickedSurf135_S4, internal, instance=NFILL-1
  10,  22,  25,  59,  71,  74, 108, 120, 123, 157, 169, 172, 206, 218, 221, 255
 267, 270, 304, 316, 319, 353, 365, 368, 402, 414, 417, 451, 463, 466
*Elset, elset=__PickedSurf135_S6, internal, instance=NFILL-1
   6,  12,  18,  55,  61,  67, 104, 110, 116, 153, 159, 165, 202, 208, 214, 251
 257, 263, 300, 306, 312, 349, 355, 361, 398, 404, 410, 447, 453, 459
*Elset, elset=__PickedSurf135_S5, internal, instance=NFILL-1, generate
  26,  467,   49
*Surface, type=ELEMENT, name=_PickedSurf135, internal
__PickedSurf135_S3, S3
__PickedSurf135_S4, S4
__PickedSurf135_S6, S6
__PickedSurf135_S5, S5
*Elset, elset=__PickedSurf136_S5, internal, instance=NARCH-1
  10,  18,  28,  36,  46,  54,  64,  72,  82,  90, 100, 108, 118, 126, 136, 144
 154, 162, 172, 180, 190, 198, 208, 216, 226, 234, 244, 252, 262, 270, 280, 288
 298, 306, 316, 324, 334, 342, 352, 360, 370, 378, 388, 396, 406, 414
*Elset, elset=__PickedSurf136_S3, internal, instance=NARCH-1, generate
  12,  408,   18
*Elset, elset=__PickedSurf136_S6, internal, instance=NARCH-1
  10,  14,  28,  32,  46,  50,  64,  68,  82,  86, 100, 104, 118, 122, 136, 140
 154, 158, 172, 176, 190, 194, 208, 212, 226, 230, 244, 248, 262, 266, 280, 284
 298, 302, 316, 320, 334, 338, 352, 356, 370, 374, 388, 392, 406, 410
*Elset, elset=__PickedSurf136_S4, internal, instance=NARCH-1
   2,   7,   8,  20,  25,  26,  38,  43,  44,  56,  61,  62,  74,  79,  80,  92
  97,  98, 110, 115, 116, 128, 133, 134, 146, 151, 152, 164, 169, 170, 182, 187
 188, 200, 205, 206, 218, 223, 224, 236, 241, 242, 254, 259, 260, 272, 277, 278
 290, 295, 296, 308, 313, 314, 326, 331, 332, 344, 349, 350, 362, 367, 368, 380
 385, 386, 398, 403, 404
*Surface, type=ELEMENT, name=_PickedSurf136, internal
__PickedSurf136_S5, S5
__PickedSurf136_S3, S3
__PickedSurf136_S6, S6
__PickedSurf136_S4, S4
*Surface, type=NODE, name=_PickedSet124_CNS_, internal
_PickedSet124, 1.
*Surface, type=NODE, name=_PickedSet134_CNS_, internal
_PickedSet134, 1.
** Constraint: LARCH-RARCH-LWEB
*Tie, name=LARCH-RARCH-LWEB, adjust=yes, no rotation
_PickedSurf114, _PickedSurf113
** Constraint: LARCH-RARCH-TARCH-LFILL
*Tie, name=LARCH-RARCH-TARCH-LFILL, adjust=yes
_PickedSurf122, _PickedSurf121
** Constraint: LWEB-TWEB-LFILL
*Tie, name=LWEB-TWEB-LFILL, adjust=yes, no rotation
_PickedSet124_CNS_, _PickedSurf123
** Constraint: NARCH-NFILL
*Tie, name=NARCH-NFILL, adjust=yes
_PickedSurf136, _PickedSurf135
** Constraint: RARCH-NARCH-NWEB
*Tie, name=RARCH-NARCH-NWEB, adjust=yes, no rotation
_PickedSurf130, _PickedSurf86
** Constraint: RARCH-TARCH-TWEB
*Tie, name=RARCH-TARCH-TWEB, adjust=yes, no rotation
_PickedSurf85, _PickedSurf84
** Constraint: TARCH-RARCH-NFILL
*Tie, name=TARCH-RARCH-NFILL, adjust=yes
_PickedSurf132, _PickedSurf131
** Constraint: TWEB-NWEB-NFILL
*Tie, name=TWEB-NWEB-NFILL, adjust=yes, no rotation
_PickedSet134_CNS_, _PickedSurf133
*End Assembly
*Distribution Table, name=Ori-1-DiscOrient_Table
coord3D, coord3D
*Distribution Table, name=Ori-1-DiscOrient-1_Table
coord3D, coord3D
*Distribution Table, name=Ori-2-DiscOrient_Table
coord3D, coord3D
*Distribution Table, name=Ori-1-DiscOrient-2_Table
coord3D, coord3D
** 
** MATERIALS
** 
*Material, name=FILL
*Density
 6.4e-06,
*Elastic
500., 0.2
*Material, name=NARCH
*Elastic
425., 0.2
*Material, name=RIB-ARCH
*Elastic
500., 0.2
*Material, name=WEB
*Elastic, type=LAMINA
5250.,   840.,    0.3, 470.27, 470.27, 470.27
** 
** INTERACTION PROPERTIES
** 
*Surface Interaction, name=GenInt
1.,
*Friction, slip tolerance=0.005
 0.7,
*Surface Behavior, pressure-overclosure=HARD
** 
** BOUNDARY CONDITIONS
** 
** Name: BaseSup Type: Symmetry/Antisymmetry/Encastre
*Boundary
_PickedSet138, PINNED
** Name: FillSup Type: Symmetry/Antisymmetry/Encastre
*Boundary
_PickedSet140, PINNED
** Name: VaultSym Type: Symmetry/Antisymmetry/Encastre
*Boundary
_PickedSet72, XSYMM
** Name: WallSup Type: Symmetry/Antisymmetry/Encastre
*Boundary
_PickedSet110, ENCASTRE
** 
** INTERACTIONS
** 
** Interaction: GenInt
*Contact
*Contact Inclusions, ALL EXTERIOR
*Contact Property Assignment
 ,  , GenInt
** ----------------------------------------------------------------
** 
** STEP: STATIC
** 
*Step, name=STATIC, nlgeom=NO
*Static
0.001, 1., 1e-08, 1.
** 
** LOADS
** 
** Name: DEAD   Type: Body force
*Dload
_PickedSet143, BY, -7.44e-05
** Name: FILL   Type: Gravity
*Dload
_PickedSet137, GRAV, 1., 0., -1., 0.
** Name: SW   Type: Body force
*Dload
_PickedSet141, BY, -5.4e-05
** Name: SW-webs   Type: Body force
*Dload
_PickedSet142, BY, -7.61e-05
** 
** OUTPUT REQUESTS
** 
*Restart, write, frequency=0
** 
** FIELD OUTPUT: F-Output-1
** 
*Output, field, variable=PRESELECT
** 
** HISTORY OUTPUT: H-Output-1
** 
*Output, history, variable=PRESELECT
*End Step
