*Heading
** Job name: Analysis-ShellBeam-upprop Model name: Shell-Beam
** Generated by: Abaqus/CAE 2019
*Preprint, echo=NO, model=NO, history=NO, contact=NO
**
** PARTS
**
*Part, name=LARCH
*Node
      1,           0.,   737.419983,           0.
      2,   119.889999,   679.950012,           0.
      3,   222.139999,   610.330017,           0.
      4,    307.51001,   532.619995,           0.
      5,   377.410004,   449.769989,           0.
      6,   433.440002,   363.679993,           0.
      7,    476.98999,   275.390015,           0.
      8,   509.700012,   185.509995,           0.
      9,   531.030029,   93.6299973,           0.
     10,    542.51001,           0.,           0.
     11,    17.127142,   729.210022,           0.
     12,   34.2542839,         721.,           0.
     13,   51.3814278,   712.789978,           0.
     14,   68.5085678,   704.580017,           0.
     15,   85.6357117,   696.369995,           0.
     16,   102.762856,   688.159973,           0.
     17,   136.931671,    668.34668,           0.
     18,   153.973328,   656.743347,           0.
     19,   171.014999,   645.140015,           0.
     20,   188.056671,   633.536682,           0.
** ... 79 like lines cut
*Element, type=B32
1,  1, 51, 11
2, 11, 52, 12
3, 12, 53, 13
4, 13, 54, 14
5, 14, 55, 15
6, 15, 56, 16
7, 16, 57,  2
 8,  2, 58, 17
 9, 17, 59, 18
10, 18, 60, 19
11, 19, 61, 20
12, 20, 62, 21
13, 21, 63,  3
14,  3, 64, 22
15, 22, 65, 23
16, 23, 66, 24
17, 24, 67, 25
18, 25, 68, 26
19, 26, 69,  4
20,  4, 70, 27
** ... 29 like lines cut
*Nset, nset=_PickedSet2, internal, generate
  1,  99,   1
*Elset, elset=_PickedSet2, internal, generate
  1,  49,   1
*Orientation, name=Ori-1
1., 0., 0., 0., 1., 0.
2, 90.
** Section: LARCH  Profile: TARCH-RARCH-LARCH
*Beam General Section, elset=_PickedSet2, poisson = 0.2, section=GENERAL
3100., 1.21e+06, 0., 510000., 1.37e+06
0.,0.,-1.
500., 208.33
*Section Points
0., 0.
*End Part
**  
*Part, name=LConFill
*Node
      1,    542.51001,           0.,        472.5
      2,   551.146667,           0.,   461.106659
      3,   559.783325,           0.,   449.713348
      4,   568.419983,           0.,   438.320007
      5,   565.840027,           0.,        472.5
      6,   571.597778,           0.,   458.117767
      7,    577.35553,           0.,   443.735565
      8,   583.113342,           0.,   429.353333
      9,   589.169983,           0.,        472.5
     10,   592.048889,           0.,   455.128876
     11,   594.927795,           0.,   437.757782
     12,   597.806641,           0.,   420.386658
     13,        612.5,           0.,        472.5
     14,        612.5,           0.,   452.140015
     15,        612.5,           0.,   431.779999
     16,        612.5,           0.,   411.420013
     17,   539.371643,   30.4231415,        472.5
     18,   547.492676,   30.5170746,   459.920349
     19,   555.623596,    30.612608,   447.347076
     20,   563.744934,   30.7064743,     434.7677
** ... 156 like lines cut
*Element, type=C3D8R
 1,  17,  18,  22,  21,   1,   2,   6,   5
 2,  18,  19,  23,  22,   2,   3,   7,   6
 3,  19,  20,  24,  23,   3,   4,   8,   7
 4,  21,  22,  26,  25,   5,   6,  10,   9
 5,  22,  23,  27,  26,   6,   7,  11,  10
 6,  23,  24,  28,  27,   7,   8,  12,  11
 7,  25,  26,  30,  29,   9,  10,  14,  13
 8,  26,  27,  31,  30,  10,  11,  15,  14
 9,  27,  28,  32,  31,  11,  12,  16,  15
10,  33,  34,  38,  37,  17,  18,  22,  21
11,  34,  35,  39,  38,  18,  19,  23,  22
12,  35,  36,  40,  39,  19,  20,  24,  23
13,  37,  38,  42,  41,  21,  22,  26,  25
14,  38,  39,  43,  42,  22,  23,  27,  26
15,  39,  40,  44,  43,  23,  24,  28,  27
16,  41,  42,  46,  45,  25,  26,  30,  29
17,  42,  43,  47,  46,  26,  27,  31,  30
18,  43,  44,  48,  47,  27,  28,  32,  31
19,  49,  50,  54,  53,  33,  34,  38,  37
20,  50,  51,  55,  54,  34,  35,  39,  38
** ... 70 like lines cut
*Node
    177,           0.,           0.,           0.
*Nset, nset=LConFill-RefPt_, internal
177, 
*Nset, nset=_PickedSet43, internal, generate
   1,  176,    1
*Elset, elset=_PickedSet43, internal, generate
  1,  90,   1
** Section: CONFILL
*Solid Section, elset=_PickedSet43, material=GRAVEL
,
*End Part
**  
*Part, name=LWEB
*Node
      1,           0.,   737.419983,         52.5
      2,           0.,   737.419983,         105.
      3,           0.,   737.419983,        157.5
      4,           0.,   737.419983,         210.
      5,           0.,   737.419983,        262.5
      6,           0.,   737.419983,         315.
      7,           0.,   737.419983,        367.5
      8,           0.,   737.419983,         420.
      9,           0.,   737.419983,           0.
     10,           0.,   737.419983,        472.5
     11,   46.4775848,   716.739868,        472.5
     12,   92.3304901,   694.717712,        472.5
     13,   136.821106,   670.072876,        472.5
     14,   179.438599,   642.312866,        472.5
     15,   220.192749,    611.87915,        472.5
     16,   259.137238,     579.1604,        472.5
     17,   296.126282,    544.24707,        472.5
     18,   330.950104,   507.174347,        472.5
     19,   363.477356,    468.07077,        472.5
     20,   393.629395,   427.107544,        472.5
** ... 97 like lines cut
*Element, type=S3
1,  82,  78,  74
2,  88,  11,  12
3,  64, 110,  65
*Element, type=S4R
 4,  31,   9,   1, 103
 5,  33,  32, 113,  87
 6,   2, 112, 103,   1
 7,  80,  35,  34,  96
 8,  86,  79,  75,  83
 9,  76,  36,  35,  80
10,  80,  83,  75,  76
11,  76,  69,  37,  36
12,  39,  38,  95, 110
13,  38,  37,  69,  95
14,  40,  39, 110,  62
15,  99,  59,  60,  58
16,  58,  60,  56,  55
17,  55,  98,  44,  43
18,  54, 100,  98, 114
19,  46,  45, 100,  53
20,  52,  53,  24,  25
21,  23,  24,  53, 100
22,  48,  47,  52, 111
23,  53,  52,  47,  46
** ... 69 like lines cut
*Node
    118,           0.,           0.,           0.
*Nset, nset=LWEB-RefPt_, internal
118, 
*Nset, nset=_PickedSet31, internal, generate
   1,  117,    1
*Elset, elset=_PickedSet31, internal, generate
  1,  92,   1
*Nset, nset=_PickedSet43, internal, generate
 10,  29,   1
*Elset, elset=_PickedSet43, internal
  2, 20, 21, 30, 31, 33, 39, 42, 43, 45, 46, 50, 53, 55, 56, 58
 59, 69, 86
*Elset, elset=__PickedSurf42_SPOS, internal, generate
  1,  92,   1
*Surface, type=ELEMENT, name=_PickedSurf42, internal
__PickedSurf42_SPOS, SPOS
*Distribution, name=Ori-1-DiscOrient, location=ELEMENT, Table=Ori-1-DiscOrient_Table
** Description: Distribution generated from Discrete Orientation
,           1.,           0.,           0.,           0.,           1.,           0.
1, -0.0349918156862259, -0.0480914637446404, 0.99822986125946, 0.833492338657379, -0.552524924278259, 0.00259827845729887
2, -0.011846131645143, -0.0247318092733622, 0.999623954296112, 0.90204519033432, -0.431641697883606, 1.04700757219689e-05
3, -0.0698481127619743, -0.0739755481481552, 0.994811058044434, 0.746995329856873, -0.664822518825531, 0.00301122688688338
4,           0.,           0.,           1., 0.964015364646912, -0.265846580266953,           0.
5, -0.013150067999959, -0.0265286546200514, 0.999561548233032, 0.940876722335815, -0.338732272386551, 0.00338796549476683
6,           0.,           0.,           1., 0.964015364646912, -0.265846580266953,           0.
7, -0.0292271822690964, -0.0460995025932789, 0.998509228229523, 0.883072972297668, -0.469217091798782, 0.00418529706075788
8, -0.0299191288650036, -0.045731820166111, 0.998505592346191, 0.883049726486206, -0.469253063201904, 0.00496770674362779
9, -0.0366040170192719, -0.051155224442482, 0.998019635677338, 0.864143550395966, -0.503210783004761, 0.005900954362005
10, -0.0356357246637344, -0.0517190396785736, 0.99802565574646, 0.864184021949768, -0.503153145313263, 0.00478267250582576
11, -0.0492294132709503, -0.0623694509267807, 0.996838271617889, 0.823708772659302, -0.566989243030548, 0.00520434742793441
12, -0.0701228976249695, -0.0737309828400612, 0.994809865951538, 0.746969521045685, -0.664849638938904, 0.00337717775255442
13, -0.0571886040270329, -0.066209003329277, 0.99616551399231, 0.800851464271545, -0.598831236362457, 0.00617523398250341
14, -0.0800654664635658, -0.0754930824041367, 0.993926644325256, 0.725074589252472, -0.688643276691437, 0.00610270397737622
15, -0.106318175792694, -0.0809763520956039, 0.991029381752014, 0.643167614936829, -0.765698313713074, 0.00643468415364623
16, -0.124961502850056, -0.0850504413247108, 0.988509476184845, 0.584683477878571, -0.811251103878021, 0.00411291932687163
17, -0.138939201831818, -0.0833365172147751, 0.986788153648376, 0.556226015090942, -0.830991148948669, 0.00813720561563969
18, -0.16386179625988, -0.0898592248558998, 0.982382118701935, 0.495152145624161, -0.868800640106201, 0.00312176533043385
19, -0.185037821531296, -0.0841484069824219, 0.979122042655945, 0.466024369001389, -0.88468998670578, 0.0120382187888026
20, -0.217869848012924, -0.0805393680930138, 0.972649037837982, 0.370794028043747, -0.928694725036621, 0.00615675374865532
** ... 72 like lines cut
*Orientation, name=Ori-1, system=RECTANGULAR
Ori-1-DiscOrient
3, 0.
** Section: WEB
*Shell Section, elset=_PickedSet31, material=WEB, orientation=Ori-1
35., 5
*End Part
**  
*Part, name=NARCH
*Node
      1,           0.,   737.419983,           0.
      2,   120.239998,   681.890015,           0.
      3,   223.429993,   613.880005,           0.
      4,   310.220001,   537.309998,           0.
      5,   381.820007,   455.040009,           0.
      6,   439.660004,   368.920013,           0.
      7,   485.059998,   282.609985,           0.
      8,   519.030029,   188.910004,           0.
      9,   542.210022,   95.6100006,           0.
     10,   554.780029,           0.,           0.
     11,   17.1771431,   729.487122,           0.
     12,   34.3542862,    721.55426,           0.
     13,   51.5314293,   713.621399,           0.
     14,   68.7085724,   705.688599,           0.
     15,   85.8857117,   697.755737,           0.
     16,   103.062859,   689.822876,           0.
     17,   137.438339,   670.554993,           0.
     18,   154.636673,   659.219971,           0.
     19,   171.835007,    647.88501,           0.
     20,    189.03334,   636.549988,           0.
** ... 79 like lines cut
*Element, type=B32
1,  1, 51, 11
2, 11, 52, 12
3, 12, 53, 13
4, 13, 54, 14
5, 14, 55, 15
6, 15, 56, 16
7, 16, 57,  2
 8,  2, 58, 17
 9, 17, 59, 18
10, 18, 60, 19
11, 19, 61, 20
12, 20, 62, 21
13, 21, 63,  3
14,  3, 64, 22
15, 22, 65, 23
16, 23, 66, 24
17, 24, 67, 25
18, 25, 68, 26
19, 26, 69,  4
20,  4, 70, 27
** ... 29 like lines cut
*Nset, nset=_PickedSet2, internal, generate
  1,  99,   1
*Elset, elset=_PickedSet2, internal, generate
  1,  49,   1
*Orientation, name=Ori-1
1., 0., 0., 0., 1., 0.
2, 90.
** Section: NARCH  Profile: NARCH
*Beam General Section, elset=_PickedSet2, poisson = 0.2, section=GENERAL
18600., 2.793e+07, 1.7e+06, 4.245e+07, 5.734e+07
0.,0.,-1.
425., 177.08
*Centroid
68.35, 59.6461
*Section Points
0., 0.
*End Part
**  
*Part, name=NConFill
*Node
      1,   554.780029,           0.,  -540.969971
      2,   583.640015,           0.,  -540.969971
      3,        612.5,           0.,  -540.969971
      4,   558.190002,           0.,  -515.307495
      5,   585.344971,           0.,  -511.945007
      6,        612.5,           0.,  -508.582489
      7,   561.599976,           0.,  -489.644989
      8,   587.049988,           0.,  -482.920013
      9,        612.5,           0.,  -476.195007
     10,    565.01001,           0.,  -463.982513
     11,   588.755005,           0.,  -453.894989
     12,        612.5,           0.,  -443.807495
     13,   568.419983,           0.,  -438.320007
     14,   590.460022,           0.,  -424.869995
     15,        612.5,           0.,  -411.420013
     16,   550.658813,   38.1006622,  -540.969971
     17,   581.579407,   37.4878311,  -540.969971
     18,        612.5,       36.875,  -540.969971
     19,   553.606873,    38.166275,  -514.188782
     20,   583.053345,    37.612133,  -511.256226
** ... 115 like lines cut
*Element, type=C3D8R
 1,  16,  17,  20,  19,   1,   2,   5,   4
 2,  17,  18,  21,  20,   2,   3,   6,   5
 3,  19,  20,  23,  22,   4,   5,   8,   7
 4,  20,  21,  24,  23,   5,   6,   9,   8
 5,  22,  23,  26,  25,   7,   8,  11,  10
 6,  23,  24,  27,  26,   8,   9,  12,  11
 7,  25,  26,  29,  28,  10,  11,  14,  13
 8,  26,  27,  30,  29,  11,  12,  15,  14
 9,  31,  32,  35,  34,  16,  17,  20,  19
10,  32,  33,  36,  35,  17,  18,  21,  20
11,  34,  35,  38,  37,  19,  20,  23,  22
12,  35,  36,  39,  38,  20,  21,  24,  23
13,  37,  38,  41,  40,  22,  23,  26,  25
14,  38,  39,  42,  41,  23,  24,  27,  26
15,  40,  41,  44,  43,  25,  26,  29,  28
16,  41,  42,  45,  44,  26,  27,  30,  29
17,  46,  47,  50,  49,  31,  32,  35,  34
18,  47,  48,  51,  50,  32,  33,  36,  35
19,  49,  50,  53,  52,  34,  35,  38,  37
20,  50,  51,  54,  53,  35,  36,  39,  38
** ... 44 like lines cut
*Node
    136,           0.,           0.,           0.
*Nset, nset=NConFill-RefPt_, internal
136, 
*Nset, nset=_PickedSet33, internal, generate
   1,  135,    1
*Elset, elset=_PickedSet33, internal, generate
  1,  64,   1
** Section: CONFILL
*Solid Section, elset=_PickedSet33, material=GRAVEL
,
*End Part
**  
*Part, name=NWEB
*Node
      1,           0.,   737.419983,  -491.790924
      2,           0.,   737.419983,  -442.611816
      3,           0.,   737.419983,  -393.432739
      4,           0.,   737.419983,  -344.253632
      5,           0.,   737.419983,  -295.074554
      6,           0.,   737.419983,  -245.895462
      7,           0.,   737.419983,   -196.71637
      8,           0.,   737.419983,  -147.537277
      9,           0.,   737.419983,  -98.3581848
     10,           0.,   737.419983,  -49.1790924
     11,           0.,   737.419983,  -540.969971
     12,           0.,   737.419983,           0.
     13,   38.6552505,   726.633545,  -29.8159046
     14,   77.0505219,   714.473389,  -59.4328842
     15,    114.83786,   699.609009,  -88.5840988
     16,   151.735291,   681.528259,  -117.051445
     17,   187.689865,   660.630554,  -144.790939
     18,    222.68425,   637.271912,  -171.786621
     19,   256.608215,   611.515991,  -197.954315
     20,   289.312653,   583.356567,  -223.180786
** ... 136 like lines cut
*Element, type=S3
1,  90,  91,  99
2, 135, 106, 115
3,  78,  86, 152
4, 145, 140,  71
5, 154,  82, 156
*Element, type=S4R
  6, 122, 124, 120, 119
  7, 118, 121, 119, 116
  8, 115, 118, 116, 150
  9, 118, 115, 106, 105
 10, 114, 117,   4,   5
 11, 117, 114, 113, 150
 12,   5,   6, 112, 114
 13, 112, 137, 111, 126
 14, 126, 111, 109, 104
 15,  17, 142, 141,  16
 16, 103, 108, 141, 142
 17, 104, 109,  97,  99
 18, 135, 104,  99,  98
 19, 144, 120,   2,   3
 20, 120, 124,   1,   2
 21,  11,   1, 124,  37
 22,   3,   4, 117, 144
 23, 148, 111, 137, 130
 24, 127, 131,   9,  10
 25, 148, 129, 141, 108
** ... 105 like lines cut
*Node
    157,           0.,           0.,           0.
*Nset, nset=NWEB-RefPt_, internal
157, 
*Nset, nset=_PickedSet31, internal, generate
   1,  156,    1
*Elset, elset=_PickedSet31, internal, generate
   1,  130,    1
*Nset, nset=_PickedSet39, internal
 11, 36, 37, 38, 39, 40, 41, 42, 43, 44, 45, 46, 47, 48, 49, 50
 51, 52, 53, 54, 55
*Elset, elset=_PickedSet39, internal
  21,  31,  33,  41,  48,  55,  60,  67,  71,  72,  81,  82,  83,  88,  90,  92
  93,  95,  99, 100
*Elset, elset=__PickedSurf38_SPOS, internal, generate
   1,  130,    1
*Surface, type=ELEMENT, name=_PickedSurf38, internal
__PickedSurf38_SPOS, SPOS
*Distribution, name=Ori-1-DiscOrient-1, location=ELEMENT, Table=Ori-1-DiscOrient-1_Table
** Description: Distribution generated from Discrete Orientation
,           1.,           0.,           0.,           0.,           1.,           0.
1, 0.0281814634799957, 0.0413678996264935, 0.998746454715729, 0.846114695072174, -0.532997846603394, -0.00179800391197205
2, 0.0164367463439703, 0.0281748063862324, 0.99946790933609, 0.87593799829483, -0.482423007488251, -0.00080582476221025
3, 0.0371455177664757, 0.0410635806620121, 0.998465836048126, 0.77592259645462, -0.630821406841278, -0.00292274612002075
4, 0.0532965622842312, 0.0428646951913834, 0.997658312320709, 0.628285527229309, -0.777982771396637, -0.00013778377615381
5, 0.0475294329226017, 0.0456689074635506, 0.99782532453537, 0.683789312839508, -0.729679107666016, 0.000825323455501348
6, 0.00598138337954879, 0.013128912076354, 0.999895930290222, 0.923796832561493, -0.382882744073868, -0.000498801120556891
7, 0.0126683004200459, 0.0246424060314894, 0.999616146087646, 0.901087820529938, -0.433636128902435, -0.000729693914763629
8, 0.0126174967736006, 0.024666853249073, 0.999616086483002, 0.90108847618103, -0.433634668588638, -0.000673336267936975
9, 0.0166373495012522, 0.0280643217265606, 0.999467611312866, 0.875934243202209, -0.482429444789886, -0.00103471905458719
10,           0.,           0.,           1., 0.941021919250488, -0.338345438241959,           0.
11, 0.00595652498304844, 0.0131392143666744, 0.999895870685577, 0.923796951770782, -0.382882326841354, -0.000471894978545606
12, 0.00590429222211242, 0.0138717573136091, 0.999886393547058, 0.942802429199219, -0.333350658416748, -0.000942528829909861
13, 0.00625039869919419, 0.0138624869287014, 0.999884307384491, 0.945562124252319, -0.325438380241394, -0.00139891670551151
14, 0.0132296029478312, 0.0261923428624868, 0.999569356441498, 0.925731778144836, -0.378173440694809, -0.00234282412566245
15, 0.0203478205949068, 0.0326887592673302, 0.999258458614349, 0.867356777191162, -0.49768477678299, -0.00138114730361849
16, 0.0176379680633545, 0.0295646283775568, 0.999407291412354, 0.898984432220459, -0.43797105550766, -0.00290953135117888
17, 0.0173272285610437, 0.0297160111367702, 0.999408185482025, 0.898990392684937, -0.437960803508759, -0.00256408331915736
18, 0.0204841997474432, 0.0335838422179222, 0.999225974082947, 0.876981854438782, -0.480520129203796, -0.00182797410525382
19,           0.,           0.,           1., 0.941021978855133, -0.338345468044281,           0.
20, 0.00558478944003582, 0.0131095638498664, 0.999898493289948, 0.918458163738251, -0.395518183708191, 5.56818959012162e-05
** ... 110 like lines cut
*Orientation, name=Ori-1, system=RECTANGULAR
Ori-1-DiscOrient-1
3, 0.
** Section: WEB
*Shell Section, elset=_PickedSet31, material=WEB, orientation=Ori-1
35., 5
*End Part
**  
*Part, name=RARCH
*Node
      1,           0.,   737.419983,           0.
      2,   124.559998,   706.429993,           0.
      3,   239.929993,   659.200012,           0.
      4,   345.059998,   597.659973,           0.
      5,   439.200012,   523.419983,           0.
      6,   521.690002,       437.75,           0.
      7,   591.789978,   341.670013,           0.
      8,   648.640015,   236.080002,           0.
      9,   691.059998,   121.849998,           0.
     10,   717.789978,           0.,           0.
     11,   20.7600002,   732.255005,           0.
     12,   41.5200005,   727.090027,           0.
     13,   62.2799988,   721.924988,           0.
     14,   83.0400009,    716.76001,           0.
     15,   103.800003,   711.594971,           0.
     16,    143.78833,    698.55835,           0.
     17,   163.016663,   690.686646,           0.
     18,   182.244995,   682.815002,           0.
     19,   201.473328,   674.943359,           0.
     20,    220.70166,   667.071655,           0.
** ... 89 like lines cut
*Element, type=B32
1,  1, 56, 11
2, 11, 57, 12
3, 12, 58, 13
4, 13, 59, 14
5, 14, 60, 15
6, 15, 61,  2
 7,  2, 62, 16
 8, 16, 63, 17
 9, 17, 64, 18
10, 18, 65, 19
11, 19, 66, 20
12, 20, 67,  3
13,  3, 68, 21
14, 21, 69, 22
15, 22, 70, 23
16, 23, 71, 24
17, 24, 72, 25
18, 25, 73,  4
19,  4, 74, 26
20, 26, 75, 27
** ... 34 like lines cut
*Nset, nset=_PickedSet2, internal, generate
   1,  109,    1
*Elset, elset=_PickedSet2, internal, generate
  1,  54,   1
*Orientation, name=Ori-1
1., 0., 0., 0., 1., 0.
2, 90.
** Section: RARCH  Profile: TARCH-RARCH-LARCH
*Beam General Section, elset=_PickedSet2, poisson = 0.2, section=GENERAL
3100., 1.21e+06, 0., 510000., 1.37e+06
0.,0.,-1.
500., 208.33
*Section Points
0., 0.
*End Part
**  
*Part, name=TARCH
*Node
      1,           0.,   737.419983,           0.
      2,   115.089996,   652.690002,           0.
      3,   204.619995,   562.140015,           0.
      4,    272.23999,   471.459991,           0.
      5,   322.089996,    383.76001,           0.
      6,   357.970001,   300.279999,           0.
      7,   382.959991,         221.,           0.
      8,   399.309998,   145.229996,           0.
      9,    408.51001,   71.9199982,           0.
     10,   411.420013,           0.,           0.
     11,   16.4414291,   725.315735,           0.
     12,   32.8828583,   713.211426,           0.
     13,   49.3242874,   701.107117,           0.
     14,   65.7657166,   689.002869,           0.
     15,   82.2071457,    676.89856,           0.
     16,   98.6485748,   664.794312,           0.
     17,   130.011673,   637.598328,           0.
     18,   144.933334,   622.506653,           0.
     19,   159.854996,   607.414978,           0.
     20,   174.776672,   592.323303,           0.
** ... 71 like lines cut
*Element, type=B32
1,  1, 47, 11
2, 11, 48, 12
3, 12, 49, 13
4, 13, 50, 14
5, 14, 51, 15
6, 15, 52, 16
7, 16, 53,  2
 8,  2, 54, 17
 9, 17, 55, 18
10, 18, 56, 19
11, 19, 57, 20
12, 20, 58, 21
13, 21, 59,  3
14,  3, 60, 22
15, 22, 61, 23
16, 23, 62, 24
17, 24, 63, 25
18, 25, 64, 26
19, 26, 65,  4
20,  4, 66, 27
** ... 25 like lines cut
*Nset, nset=_PickedSet2, internal, generate
  1,  91,   1
*Elset, elset=_PickedSet2, internal, generate
  1,  45,   1
*Orientation, name=Ori-1
1., 0., 0., 0., 1., 0.
2, 90.
** Section: TARCH  Profile: TARCH-RARCH-LARCH
*Beam General Section, elset=_PickedSet2, poisson = 0.2, section=GENERAL
3100., 1.21e+06, 0., 510000., 1.37e+06
0.,0.,-1.
500., 208.33
*Section Points
0., 0.
*End Part
**  
*Part, name=TWEB-merged
*Node
      1,           0.,   737.419983,           0.
      2,        612.5,   737.419983,           0.
      3,        612.5,           0.,  -411.420013
      4,   568.419983,           0.,  -438.320007
      5,   568.419983,           0.,   438.320007
      6,        612.5,           0.,   411.420013
      7,   51.0416679,   737.419983,           0.
      8,   102.083336,   737.419983,           0.
      9,      153.125,   737.419983,           0.
     10,   204.166672,   737.419983,           0.
     11,   255.208328,   737.419983,           0.
     12,       306.25,   737.419983,           0.
     13,   357.291656,   737.419983,           0.
     14,   408.333344,   737.419983,           0.
     15,      459.375,   737.419983,           0.
     16,   510.416656,   737.419983,           0.
     17,   561.458313,   737.419983,           0.
     18,        612.5,   709.611572,  -40.3506699
     19,        612.5,   680.810608,  -79.9958344
     20,        612.5,   650.068604,  -118.148972
** ... 235 like lines cut
*Element, type=S3
1, 165, 164, 163
2,  30,  98,  29
3, 123, 172, 122
109, 202, 203, 197
110, 175,  74,  75
111, 178, 181, 177
112, 239, 250, 222
113, 209, 253, 194
*Element, type=S4R
  4,  55,   1,   7, 163
  5,  54, 164, 151,  53
  6, 151, 134,  52,  53
  7, 136, 140, 153, 141
  8,  49,  50, 126, 119
  9,  48,  49, 119, 113
 10,  47,  48, 113, 106
 11, 103, 107, 108, 109
 12, 106, 107,  46,  47
 13,  44,  45, 103, 158
 14,  43,  44, 158, 100
 15,  29,  98, 159,  28
 16, 159,  97,  96, 101
 17, 162,  39,  40,  97
 18,  95, 162,  98,  30
 19,  97,  40,  41,  96
 20, 134, 130,  51,  52
 21, 149, 156, 137, 131
 22, 146, 143,  16,  17
 23, 146,  17,   2,  18
** ... 189 like lines cut
*Nset, nset=_PickedSet31_#7, internal
   1,   2,   5,   6,   7,   8,   9,  10,  11,  12,  13,  14,  15,  16,  17,  56
  57,  58,  59,  60,  61,  62,  63,  64,  65,  66,  67,  68,  69,  70,  71,  72
  73,  74,  75,  76,  77,  78,  79,  80,  81,  82,  83,  84,  85,  86,  87,  88
  89,  90,  91,  92,  93, 175, 176, 177, 178, 179, 180, 181, 182, 183, 184, 185
 186, 187, 188, 189, 190, 191, 192, 193, 194, 195, 196, 197, 198, 199, 200, 201
 202, 203, 204, 205, 206, 207, 208, 209, 210, 211, 212, 213, 214, 215, 216, 217
 218, 219, 220, 221, 222, 223, 224, 225, 226, 227, 228, 229, 230, 231, 232, 233
 234, 235, 236, 237, 238, 239, 240, 241, 242, 243, 244, 245, 246, 247, 248, 249
 250, 251, 252, 253, 254, 255
*Elset, elset=_PickedSet31_#7, internal, generate
 109,  217,    1
*Nset, nset=_PickedSet32_#8, internal
   1,   2,   5,   6,   7,   8,   9,  10,  11,  12,  13,  14,  15,  16,  17,  56
  57,  58,  59,  60,  61,  62,  63,  64,  65,  66,  67,  68,  69,  70,  71,  72
  73,  74,  75,  76,  77,  78,  79,  80,  81,  82,  83,  84,  85,  86,  87,  88
  89,  90,  91,  92,  93, 175, 176, 177, 178, 179, 180, 181, 182, 183, 184, 185
 186, 187, 188, 189, 190, 191, 192, 193, 194, 195, 196, 197, 198, 199, 200, 201
 202, 203, 204, 205, 206, 207, 208, 209, 210, 211, 212, 213, 214, 215, 216, 217
 218, 219, 220, 221, 222, 223, 224, 225, 226, 227, 228, 229, 230, 231, 232, 233
 234, 235, 236, 237, 238, 239, 240, 241, 242, 243, 244, 245, 246, 247, 248, 249
 250, 251, 252, 253, 254, 255
*Elset, elset=_PickedSet32_#8, internal, generate
 109,  217,    1
*Nset, nset=_PickedSet2_#8, internal
   1,   2,   3,   4,   7,   8,   9,  10,  11,  12,  13,  14,  15,  16,  17,  18
  19,  20,  21,  22,  23,  24,  25,  26,  27,  28,  29,  30,  31,  32,  33,  34
  35,  36,  37,  38,  39,  40,  41,  42,  43,  44,  45,  46,  47,  48,  49,  50
  51,  52,  53,  54,  55,  94,  95,  96,  97,  98,  99, 100, 101, 102, 103, 104
 105, 106, 107, 108, 109, 110, 111, 112, 113, 114, 115, 116, 117, 118, 119, 120
 121, 122, 123, 124, 125, 126, 127, 128, 129, 130, 131, 132, 133, 134, 135, 136
 137, 138, 139, 140, 141, 142, 143, 144, 145, 146, 147, 148, 149, 150, 151, 152
 153, 154, 155, 156, 157, 158, 159, 160, 161, 162, 163, 164, 165, 166, 167, 168
 169, 170, 171, 172, 173, 174
*Elset, elset=_PickedSet2_#8, internal, generate
   1,  108,    1
*Nset, nset=_PickedSet3_#9, internal
   1,   2,   3,   4,   7,   8,   9,  10,  11,  12,  13,  14,  15,  16,  17,  18
  19,  20,  21,  22,  23,  24,  25,  26,  27,  28,  29,  30,  31,  32,  33,  34
  35,  36,  37,  38,  39,  40,  41,  42,  43,  44,  45,  46,  47,  48,  49,  50
  51,  52,  53,  54,  55,  94,  95,  96,  97,  98,  99, 100, 101, 102, 103, 104
 105, 106, 107, 108, 109, 110, 111, 112, 113, 114, 115, 116, 117, 118, 119, 120
 121, 122, 123, 124, 125, 126, 127, 128, 129, 130, 131, 132, 133, 134, 135, 136
 137, 138, 139, 140, 141, 142, 143, 144, 145, 146, 147, 148, 149, 150, 151, 152
 153, 154, 155, 156, 157, 158, 159, 160, 161, 162, 163, 164, 165, 166, 167, 168
 169, 170, 171, 172, 173, 174
*Elset, elset=_PickedSet3_#9, internal, generate
   1,  108,    1
*Nset, nset=_PickedSet11, internal
  2,  6, 77, 78, 79, 80, 81, 82, 83, 84, 85, 86, 87, 88, 89, 90
 91, 92, 93
*Elset, elset=_PickedSet11, internal
 141, 149, 153, 161, 164, 167, 171, 172, 173, 174, 175, 177, 179, 180, 181, 207
 215, 216
*Nset, nset=_PickedSet14, internal
  2,  3, 18, 19, 20, 21, 22, 23, 24, 25, 26, 27, 28, 29, 30, 31
 32, 33, 34
*Elset, elset=_PickedSet14, internal
  2, 15, 23, 24, 47, 55, 60, 65, 69, 70, 71, 74, 75, 78, 79, 80
 94, 97
*Elset, elset=__PickedSurf10_SPOS, internal, generate
 109,  217,    1
*Surface, type=ELEMENT, name=_PickedSurf10, internal
__PickedSurf10_SPOS, SPOS
*Elset, elset=__PickedSurf13_SPOS, internal, generate
   1,  108,    1
*Surface, type=ELEMENT, name=_PickedSurf13, internal
__PickedSurf13_SPOS, SPOS
*Distribution, name=Ori-2-DiscOrient, location=ELEMENT, Table=Ori-2-DiscOrient_Table
** Description: Distribution generated from Discrete Orientation
,           1.,           0.,           0.,           0.,           1.,           0.
1,           1.,           0.,           0.,           0., -0.346165239810944, -0.938173472881317
2, 0.991911888122559, -0.0395010225474834, 0.120625786483288, 0.00191732484381646, -0.945571064949036, -0.325410038232803
3, 0.996792435646057, -0.0523038320243359, 0.0605744235217571, 0.00288892420940101, -0.732878565788269, -0.680353403091431
4,           1.,           0.,           0.,           0., -0.346165269613266, -0.938173532485962
5, 0.999708712100983, -0.0196186453104019, 0.0140616968274117, 0.00518888514488935, -0.394270122051239, -0.918980002403259
6, 0.998938262462616, -0.0368270762264729, 0.0276801381260157, 0.00762054789811373, -0.460467040538788, -0.887644112110138
7, 0.99977833032608, -0.0170269496738911, 0.012389512732625, 0.00199130829423666, -0.509281873703003, -0.860597491264343
8, 0.9969761967659, -0.0550959892570972, 0.0548000745475292, 0.00940526928752661, -0.614462316036224, -0.788890063762665
9, 0.995835840702057, -0.0617888569831848, 0.0670309513807297, 0.0076032760553062, -0.676419317722321, -0.736477494239807
10, 0.995301783084869, -0.062555231153965, 0.0739005953073502, 0.0081639876589179, -0.706324219703674, -0.707841455936432
11, 0.993991911411285, -0.064193420112133, 0.0886529386043549, 0.00447856821119785, -0.785425662994385, -0.618939697742462
12, 0.99524974822998, -0.0594568029046059, 0.0770899876952171, 0.00627790158614516, -0.751001715660095, -0.660270392894745
13, 0.993777275085449, -0.0594913028180599, 0.0941673889756203, 0.00100288528483361, -0.840606093406677, -0.541646003723145
14, 0.992018520832062, -0.0622073709964752, 0.109678529202938, 0.00185034982860088, -0.862555384635925, -0.505959391593933
15, 0.99109935760498, -0.0470681749284267, 0.124526426196098, -0.00155913888011128, -0.939450263977051, -0.342681854963303
16, 0.993554174900055, -0.0439825989305973, 0.104477651417255, -0.00064116099383682, -0.923826277256012, -0.382811486721039
17, 0.984379410743713, -0.0543767064809799, 0.167452812194824, 0.00499171111732721, -0.942107737064362, -0.335273265838623
18, 0.987772583961487, -0.0445686317980289, 0.149395734071732, -0.000665392901282758, -0.959463119506836, -0.281833380460739
19, 0.988493680953979, -0.0542888566851616, 0.141184344887733, 0.00530460756272078, -0.920358300209045, -0.391040295362473
20, 0.998511850833893, -0.0422955900430679, 0.0344242230057716, 0.00821302831172943, -0.507412552833557, -0.861664175987244
** ... 88 like lines cut
*Orientation, name=Ori-2, system=RECTANGULAR
Ori-2-DiscOrient
3, 0.
** Section: WEB
*Shell Section, elset=_PickedSet2_#8, material=WEB, orientation=Ori-2
35., 5
*Distribution, name=Ori-1-DiscOrient-2, location=ELEMENT, Table=Ori-1-DiscOrient-2_Table
** Description: Distribution generated from Discrete Orientation
,           1.,           0.,           0.,           0.,           1.,           0.
109, -0.996790051460266, 0.0517798475921154, 0.0610608197748661, 0.00360157573595643, -0.732915699481964, 0.680309891700745
110, -0.963401317596436, 0.0401442125439644, 0.26504048705101, 0.00249460525810719, -0.987337470054626, 0.158614218235016
111, -0.993554353713989, 0.0436833761632442, 0.104601636528969, -0.000319358805427328, -0.923840522766113, 0.382777690887451
112, -0.999709904193878, 0.0197170935571194, 0.0138322189450264, 0.00493924925103784, -0.394265204668045, 0.918983399868011
113, -0.996331751346588, 0.0569017753005028, 0.063915990293026, 0.0051666502840817, -0.705539762973785, 0.708651483058929
114, -0.999268531799316, 0.0308594778180122, 0.0225877519696951, -0.000160399969900027, -0.594017028808594, 0.804452478885651
115, -0.999042153358459, 0.0354911610484123, 0.0255959425121546, 0.00447036093100905, -0.499100178480148, 0.866532802581787
116, -0.997547507286072, 0.0518577806651592, 0.0470090769231319, 0.00802741572260857, -0.582426011562347, 0.812844157218933
117, -0.999708235263824, 0.0195870604366064, 0.0141353122889996, 0.00526896631345153, -0.394271641969681, 0.918978750705719
118, -0.999752461910248, 0.0182563047856092, 0.0127149932086468, 0.00280818715691566, -0.463394433259964, 0.886147677898407
119, -0.998935997486115, 0.0366954207420349, 0.0279339253902435, 0.00790615938603878, -0.460477530956268, 0.887636125087738
120, -0.999752342700958, 0.0182420536875725, 0.01274224370718, 0.00283893127925694, -0.463394999504089, 0.886147320270538
121, -0.999752640724182, 0.0182862300425768, 0.0126577615737915, 0.00274361949414015, -0.463393300771713, 0.886148571968079
122,          -1.,           0.,           0.,           0., -0.346165269613266, 0.938173532485962
123, -0.999752879142761, 0.018321281298995, 0.0125907380133867, 0.00266800215467811, -0.463391900062561, 0.88614946603775
124,          -1.,           0.,           0.,           0., -0.473900586366653, 0.880578398704529
125,          -1.,           0.,           0.,           0., -0.473900616168976, 0.880578398704529
126,          -1.,           0.,           0.,           0., -0.473900556564331, 0.880578279495239
127, -0.999811947345734, 0.0159784182906151, 0.0109921777620912, -3.77359210688155e-05, -0.568376064300537, 0.822768867015839
128, -0.999811947345734, 0.0159660298377275, 0.011010111309588, -1.5943516700645e-05, -0.568376421928406, 0.822768688201904
** ... 89 like lines cut
*Orientation, name=Ori-1, system=RECTANGULAR
Ori-1-DiscOrient-2
3, 0.
** Section: WEB
*Shell Section, elset=_PickedSet31_#7, material=WEB, orientation=Ori-1
35., 5
*End Part
**  
**
** ASSEMBLY
**
*Assembly, name=Assembly
**  
*Instance, name=LARCH-1, part=LARCH
          0.,           0.,        472.5
*End Instance
**  
*Instance, name=LWEB-1, part=LWEB
*End Instance
**  
*Instance, name=RARCH-1, part=RARCH
          0.,           0.,           0.
          0.,           0.,           0.,           0., -1.00000000241892,           0., 37.6400011155629
*End Instance
**  
*Instance, name=NARCH-1, part=NARCH
          0.,           0.,      -540.97
*End Instance
**  
*Instance, name=NWEB-1, part=NWEB
*End Instance
**  
*Instance, name=RARCH-2, part=RARCH
          0.,           0.,           0.
          0.,           0.,           0.,           0., 1.00000000241892,           0., 37.6400011155629
*End Instance
**  
*Instance, name=TARCH-1, part=TARCH
       612.5,           0.,           0.
       612.5,           0.,           0.,        612.5, -1.00000001268805,           0., 89.9999992730282
*End Instance
**  
*Instance, name=TARCH-2, part=TARCH
       612.5,           0., -4.36680238635745e-07
       612.5,           0., -4.36680238635745e-07,        612.5, 1.00000001268805, -4.36680238635745e-07, 89.9999992730282
*End Instance
**  
*Instance, name=TWEB-merged-1, part=TWEB-merged
*End Instance
**  
*Instance, name=LConFill-1, part=LConFill
*End Instance
**  
*Instance, name=NConFill-1, part=NConFill
*End Instance
**  
*Nset, nset="LARCH-RARCH - slaves", instance=LARCH-1, generate
  1,  99,   1
*Nset, nset="LARCH-RARCH - slaves", instance=RARCH-1, generate
   1,  109,    1
*Elset, elset="LARCH-RARCH - slaves", instance=LARCH-1, generate
  1,  49,   1
*Elset, elset="LARCH-RARCH - slaves", instance=RARCH-1, generate
  1,  54,   1
*Nset, nset="LWEB - master edges", instance=LWEB-1, generate
  9,  51,   1
*Elset, elset="LWEB - master edges", instance=LWEB-1
  2,  4,  5,  7,  9, 11, 12, 13, 14, 17, 19, 20, 21, 22, 23, 30
 31, 33, 39, 42, 43, 45, 46, 49, 50, 53, 55, 56, 57, 58, 59, 60
 61, 63, 67, 69, 86, 88
*Nset, nset="LWEB-NWEB - symmetry edges", instance=LWEB-1, generate
  1,  10,   1
*Nset, nset="LWEB-NWEB - symmetry edges", instance=NWEB-1, generate
  1,  12,   1
*Elset, elset="LWEB-NWEB - symmetry edges", instance=LWEB-1
  4,  6, 24, 25, 35, 36, 38, 46, 84
*Elset, elset="LWEB-NWEB - symmetry edges", instance=NWEB-1
  10,  12,  19,  20,  21,  22,  24,  26, 110, 115, 126
*Nset, nset="NARCH-RARCH2 - slaves", instance=NARCH-1, generate
  1,  99,   1
*Nset, nset="NARCH-RARCH2 - slaves", instance=RARCH-2, generate
   1,  109,    1
*Elset, elset="NARCH-RARCH2 - slaves", instance=NARCH-1, generate
  1,  49,   1
*Elset, elset="NARCH-RARCH2 - slaves", instance=RARCH-2, generate
  1,  54,   1
*Nset, nset="NWEB - master edges", instance=NWEB-1
 11, 12, 13, 14, 15, 16, 17, 18, 19, 20, 21, 22, 23, 24, 25, 26
 27, 28, 29, 30, 31, 32, 33, 34, 36, 37, 38, 39, 40, 41, 42, 43
 44, 45, 46, 47, 48, 49, 50, 51, 52, 53, 54, 55
*Elset, elset="NWEB - master edges", instance=NWEB-1
  15,  21,  26,  28,  29,  31,  33,  36,  41,  43,  48,  51,  55,  56,  57,  60
  63,  64,  67,  71,  72,  76,  78,  80,  81,  82,  83,  85,  86,  87,  88,  90
  92,  93,  95,  99, 100, 101, 102, 111, 124, 127
*Nset, nset="RARCH-TARCH - masters", instance=RARCH-1, generate
   1,  109,    1
*Nset, nset="RARCH-TARCH - masters", instance=TARCH-1, generate
  1,  91,   1
*Elset, elset="RARCH-TARCH - masters", instance=RARCH-1, generate
  1,  54,   1
*Elset, elset="RARCH-TARCH - masters", instance=TARCH-1, generate
  1,  45,   1
*Nset, nset="RARCH-TARCH-RARCH2-TARCH2 - masters", instance=RARCH-1, generate
   1,  109,    1
*Nset, nset="RARCH-TARCH-RARCH2-TARCH2 - masters", instance=TARCH-1, generate
  1,  91,   1
*Nset, nset="RARCH-TARCH-RARCH2-TARCH2 - masters", instance=TARCH-2, generate
  1,  91,   1
*Nset, nset="RARCH-TARCH-RARCH2-TARCH2 - masters", instance=RARCH-2, generate
   1,  109,    1
*Elset, elset="RARCH-TARCH-RARCH2-TARCH2 - masters", instance=RARCH-1, generate
  1,  54,   1
*Elset, elset="RARCH-TARCH-RARCH2-TARCH2 - masters", instance=TARCH-1, generate
  1,  45,   1
*Elset, elset="RARCH-TARCH-RARCH2-TARCH2 - masters", instance=TARCH-2, generate
  1,  45,   1
*Elset, elset="RARCH-TARCH-RARCH2-TARCH2 - masters", instance=RARCH-2, generate
  1,  54,   1
*Nset, nset="RARCH2-TARCH2 - masters", instance=RARCH-2, generate
   1,  109,    1
*Nset, nset="RARCH2-TARCH2 - masters", instance=TARCH-2, generate
  1,  91,   1
*Elset, elset="RARCH2-TARCH2 - masters", instance=RARCH-2, generate
  1,  54,   1
*Elset, elset="RARCH2-TARCH2 - masters", instance=TARCH-2, generate
  1,  45,   1
*Nset, nset="TWEB - slave edges", instance=TWEB-merged-1
  1,  2,  5,  6, 56, 57, 58, 59, 60, 61, 62, 63, 64, 65, 66, 67
 68, 69, 70, 71, 72, 73, 74, 75, 76, 77, 78, 79, 80, 81, 82, 83
 84, 85, 86, 87, 88, 89, 90, 91, 92, 93
*Elset, elset="TWEB - slave edges", instance=TWEB-merged-1
 110, 116, 117, 118, 119, 130, 136, 141, 144, 149, 151, 153, 157, 158, 159, 161
 164, 165, 167, 168, 170, 171, 172, 173, 174, 175, 176, 177, 179, 180, 181, 182
 185, 186, 206, 207, 215, 216
*Nset, nset="TWEB-TWEBOPP - master edges", instance=TWEB-merged-1
  1,  2,  7,  8,  9, 10, 11, 12, 13, 14, 15, 16, 17
*Elset, elset="TWEB-TWEBOPP - master edges", instance=TWEB-merged-1
   4,  22,  23,  33,  36,  40,  41,  43,  98, 100, 104, 106, 122, 123, 124, 125
 126, 127, 128, 130, 181, 209, 213, 214
*Nset, nset="TWEB-merged - slave edges", instance=TWEB-merged-1
  1,  2,  3,  4,  5,  6, 18, 19, 20, 21, 22, 23, 24, 25, 26, 27
 28, 29, 30, 31, 32, 33, 34, 35, 36, 37, 38, 39, 40, 41, 42, 43
 44, 45, 46, 47, 48, 49, 50, 51, 52, 53, 54, 55, 56, 57, 58, 59
 60, 61, 62, 63, 64, 65, 66, 67, 68, 69, 70, 71, 72, 73, 74, 75
 76, 77, 78, 79, 80, 81, 82, 83, 84, 85, 86, 87, 88, 89, 90, 91
 92, 93
*Elset, elset="TWEB-merged - slave edges", instance=TWEB-merged-1
   2,   4,   5,   6,   8,   9,  10,  12,  13,  14,  15,  17,  19,  20,  23,  24
  47,  55,  59,  60,  65,  67,  69,  70,  71,  73,  74,  75,  76,  77,  78,  79
  80,  81,  83,  94,  97, 103, 110, 116, 117, 118, 119, 130, 136, 141, 144, 149
 151, 153, 157, 158, 159, 161, 164, 165, 167, 168, 170, 171, 172, 173, 174, 175
 176, 177, 179, 180, 181, 182, 185, 186, 206, 207, 215, 216
*Nset, nset="TWEBOPP - slave edges", instance=TWEB-merged-1
  1,  2,  3,  4, 18, 19, 20, 21, 22, 23, 24, 25, 26, 27, 28, 29
 30, 31, 32, 33, 34, 35, 36, 37, 38, 39, 40, 41, 42, 43, 44, 45
 46, 47, 48, 49, 50, 51, 52, 53, 54, 55
*Elset, elset="TWEBOPP - slave edges", instance=TWEB-merged-1
   2,   4,   5,   6,   8,   9,  10,  12,  13,  14,  15,  17,  19,  20,  23,  24
  47,  55,  59,  60,  65,  67,  69,  70,  71,  73,  74,  75,  76,  77,  78,  79
  80,  81,  83,  94,  97, 103
*Nset, nset="boundary support edges", instance=LWEB-1
 29, 30
*Nset, nset="boundary support edges", instance=TWEB-merged-1, generate
 3,  6,  1
*Nset, nset="boundary support edges", instance=NWEB-1, generate
 34,  36,   1
*Elset, elset="boundary support edges", instance=LWEB-1
 59,
*Elset, elset="boundary support edges", instance=TWEB-merged-1
  79, 173
*Elset, elset="boundary support edges", instance=NWEB-1
  81, 101
*Nset, nset=_PickedSet85, internal, instance=LWEB-1, generate
 10,  29,   1
*Elset, elset=_PickedSet85, internal, instance=LWEB-1
  2, 20, 21, 30, 31, 33, 39, 42, 43, 45, 46, 50, 53, 55, 56, 58
 59, 69, 86
*Nset, nset=_PickedSet90, internal, instance=LARCH-1, generate
  1,  99,   1
*Nset, nset=_PickedSet90, internal, instance=RARCH-1, generate
   1,  109,    1
*Nset, nset=_PickedSet90, internal, instance=TARCH-1, generate
  1,  91,   1
*Nset, nset=_PickedSet90, internal, instance=TARCH-2, generate
  1,  91,   1
*Nset, nset=_PickedSet90, internal, instance=RARCH-2, generate
   1,  109,    1
*Elset, elset=_PickedSet90, internal, instance=LARCH-1, generate
  1,  49,   1
*Elset, elset=_PickedSet90, internal, instance=RARCH-1, generate
  1,  54,   1
*Elset, elset=_PickedSet90, internal, instance=TARCH-1, generate
  1,  45,   1
*Elset, elset=_PickedSet90, internal, instance=TARCH-2, generate
  1,  45,   1
*Elset, elset=_PickedSet90, internal, instance=RARCH-2, generate
  1,  54,   1
*Nset, nset=_PickedSet91, internal, instance=NARCH-1, generate
  1,  99,   1
*Elset, elset=_PickedSet91, internal, instance=NARCH-1, generate
  1,  49,   1
*Nset, nset=_PickedSet102, internal, instance=LWEB-1, generate
   1,  117,    1
*Nset, nset=_PickedSet102, internal, instance=TWEB-merged-1, generate
   1,  255,    1
*Nset, nset=_PickedSet102, internal, instance=NWEB-1, generate
   1,  156,    1
*Elset, elset=_PickedSet102, internal, instance=LWEB-1, generate
  1,  92,   1
*Elset, elset=_PickedSet102, internal, instance=TWEB-merged-1, generate
   1,  217,    1
*Elset, elset=_PickedSet102, internal, instance=NWEB-1, generate
   1,  130,    1
*Nset, nset=_PickedSet117, internal, instance=NConFill-1, generate
   1,  135,    1
*Elset, elset=_PickedSet117, internal, instance=NConFill-1, generate
  1,  64,   1
*Nset, nset=_PickedSet122, internal, instance=LConFill-1
   1,   2,   3,   4,   5,   6,   7,   8,   9,  10,  11,  12,  13,  14,  15,  16
  17,  21,  25,  29,  30,  31,  32,  33,  37,  41,  45,  46,  47,  48,  49,  53
  57,  61,  62,  63,  64,  65,  69,  73,  77,  78,  79,  80,  81,  85,  89,  93
  94,  95,  96,  97, 101, 105, 109, 110, 111, 112, 113, 117, 121, 125, 126, 127
 128, 129, 133, 137, 141, 142, 143, 144, 145, 149, 153, 157, 158, 159, 160, 161
 165, 169, 173, 174, 175, 176
*Nset, nset=_PickedSet122, internal, instance=NConFill-1
   1,   2,   3,   4,   5,   6,   7,   8,   9,  10,  11,  12,  13,  14,  15,  16
  17,  18,  21,  24,  27,  30,  31,  32,  33,  36,  39,  42,  45,  46,  47,  48
  51,  54,  57,  60,  61,  62,  63,  66,  69,  72,  75,  76,  77,  78,  81,  84
  87,  90,  91,  92,  93,  96,  99, 102, 105, 106, 107, 108, 111, 114, 117, 120
 121, 122, 123, 126, 129, 132, 135
*Elset, elset=_PickedSet122, internal, instance=LConFill-1
  1,  2,  3,  4,  5,  6,  7,  8,  9, 10, 13, 16, 17, 18, 19, 22
 25, 26, 27, 28, 31, 34, 35, 36, 37, 40, 43, 44, 45, 46, 49, 52
 53, 54, 55, 58, 61, 62, 63, 64, 67, 70, 71, 72, 73, 76, 79, 80
 81, 82, 85, 88, 89, 90
*Elset, elset=_PickedSet122, internal, instance=NConFill-1
  1,  2,  3,  4,  5,  6,  7,  8,  9, 10, 12, 14, 16, 17, 18, 20
 22, 24, 25, 26, 28, 30, 32, 33, 34, 36, 38, 40, 41, 42, 44, 46
 48, 49, 50, 52, 54, 56, 57, 58, 60, 62, 64
*Nset, nset=_PickedSet124, internal, instance=LWEB-1, generate
   1,  117,    1
*Nset, nset=_PickedSet124, internal, instance=TWEB-merged-1, generate
   1,  255,    1
*Nset, nset=_PickedSet124, internal, instance=NWEB-1, generate
   1,  156,    1
*Elset, elset=_PickedSet124, internal, instance=LWEB-1, generate
  1,  92,   1
*Elset, elset=_PickedSet124, internal, instance=TWEB-merged-1, generate
   1,  217,    1
*Elset, elset=_PickedSet124, internal, instance=NWEB-1, generate
   1,  130,    1
*Elset, elset=__PickedSurf118_SPOS, internal, instance=LWEB-1, generate
  1,  92,   1
*Elset, elset=__PickedSurf118_SPOS, internal, instance=TWEB-merged-1, generate
 109,  217,    1
*Surface, type=ELEMENT, name=_PickedSurf118, internal
__PickedSurf118_SPOS, SPOS
*Elset, elset=__PickedSurf119_S3, internal, instance=LConFill-1
  1,  2,  3, 10, 11, 12, 19, 20, 21, 28, 29, 30, 37, 38, 39, 46
 47, 48, 55, 56, 57, 64, 65, 66, 73, 74, 75, 82, 83, 84
*Elset, elset=__PickedSurf119_S4, internal, instance=LConFill-1, generate
  3,  90,   3
*Surface, type=ELEMENT, name=_PickedSurf119, internal
__PickedSurf119_S3, S3
__PickedSurf119_S4, S4
*Elset, elset=__PickedSurf120_SPOS, internal, instance=NWEB-1, generate
   1,  130,    1
*Elset, elset=__PickedSurf120_SPOS, internal, instance=TWEB-merged-1, generate
   1,  108,    1
*Surface, type=ELEMENT, name=_PickedSurf120, internal
__PickedSurf120_SPOS, SPOS
*Elset, elset=__PickedSurf121_S5, internal, instance=NConFill-1
  7,  8, 15, 16, 23, 24, 31, 32, 39, 40, 47, 48, 55, 56, 63, 64
*Elset, elset=__PickedSurf121_S6, internal, instance=NConFill-1, generate
  1,  63,   2
*Surface, type=ELEMENT, name=_PickedSurf121, internal
__PickedSurf121_S5, S5
__PickedSurf121_S6, S6
*Surface, type=NODE, name="LWEB - master edges_CNS_", internal
"LWEB - master edges", 1.
*Surface, type=NODE, name="LARCH-RARCH - slaves_CNS_", internal
"LARCH-RARCH - slaves", 1.
*Surface, type=NODE, name="NWEB - master edges_CNS_", internal
"NWEB - master edges", 1.
*Surface, type=NODE, name="NARCH-RARCH2 - slaves_CNS_", internal
"NARCH-RARCH2 - slaves", 1.
*Surface, type=NODE, name="RARCH-TARCH-RARCH2-TARCH2 - masters_CNS_", internal
"RARCH-TARCH-RARCH2-TARCH2 - masters", 1.
*Surface, type=NODE, name="TWEB-merged - slave edges_CNS_", internal
"TWEB-merged - slave edges", 1.
** Constraint: LWEB-LFILL
*Tie, name=LWEB-LFILL, adjust=yes, no rotation
_PickedSurf119, _PickedSurf118
** Constraint: LWEB-RARCH-LARCH
*Tie, name=LWEB-RARCH-LARCH, adjust=yes, no rotation
"LARCH-RARCH - slaves_CNS_", "LWEB - master edges_CNS_"
** Constraint: NWEB-NFILL
*Tie, name=NWEB-NFILL, adjust=yes, no rotation
_PickedSurf121, _PickedSurf120
** Constraint: NWEB-RARCH2-NARCH
*Tie, name=NWEB-RARCH2-NARCH, adjust=yes, no rotation
"NARCH-RARCH2 - slaves_CNS_", "NWEB - master edges_CNS_"
** Constraint: RARCH-TARCH-TWEB-merged
*Tie, name=RARCH-TARCH-TWEB-merged, adjust=yes, no rotation
"TWEB-merged - slave edges_CNS_", "RARCH-TARCH-RARCH2-TARCH2 - masters_CNS_"
*End Assembly
*Distribution Table, name=Ori-1-DiscOrient_Table
coord3D, coord3D
*Distribution Table, name=Ori-1-DiscOrient-1_Table
coord3D, coord3D
*Distribution Table, name=Ori-2-DiscOrient_Table
coord3D, coord3D
*Distribution Table, name=Ori-1-DiscOrient-2_Table
coord3D, coord3D
** 
** MATERIALS
** 
*Material, name=GRAVEL
*Density
 8.564e-06,
*Elastic
500., 0.2
*Material, name=WEB
*Elastic, type=LAMINA
5250.,   840.,    0.3, 470.27, 470.27, 470.27
** 
** INTERACTION PROPERTIES
** 
*Surface Interaction, name=INTPROP
1.,
*Friction, slip tolerance=0.005
 0.7,
*Surface Behavior, pressure-overclosure=HARD
** 
** BOUNDARY CONDITIONS
** 
** Name: BaseSup Type: Symmetry/Antisymmetry/Encastre
*Boundary
"boundary support edges", PINNED
** Name: FillSup Type: Symmetry/Antisymmetry/Encastre
*Boundary
_PickedSet122, PINNED
** Name: VaultSymm Type: Symmetry/Antisymmetry/Encastre
*Boundary
"LWEB-NWEB - symmetry edges", XSYMM
** Name: WallSup Type: Symmetry/Antisymmetry/Encastre
*Boundary
_PickedSet85, ENCASTRE
** 
** INTERACTIONS
** 
** Interaction: GINT
*Contact
*Contact Inclusions, ALL EXTERIOR
*Contact Property Assignment
 ,  , INTPROP
** ----------------------------------------------------------------
** 
** STEP: STATIC
** 
*Step, name=STATIC, nlgeom=NO
*Static
0.001, 1., 1e-10, 1.
** 
** LOADS
** 
** Name: DEAD   Type: Body force
*Dload
_PickedSet124, BY, -5.87e-05
** Name: FILL   Type: Gravity
*Dload
_PickedSet117, GRAV, 1., 0., -1., 0.
** Name: SW   Type: Body force
*Dload
_PickedSet102, BY, -5.78e-05
** Name: SW - LARCH-RARCH-TARCH   Type: Line load
*Dload
_PickedSet90, PY, -0.1674
** Name: SW - NARCH   Type: Line load
*Dload
_PickedSet91, PY, -1.0044
** 
** CONTROLS
** 
*Controls, reset
** 
** OUTPUT REQUESTS
** 
*Restart, write, frequency=0
** 
** FIELD OUTPUT: F-Output-1
** 
*Output, field
*Node Output
CF, RF, U
*Element Output, directions=YES
BF, DAMAGEC, DAMAGET, E, EE, MISES, PE, PEEQ, PEMAG, S
*Contact Output
CDISP, CSTRESS
** 
** HISTORY OUTPUT: H-Output-1
** 
*Output, history, variable=PRESELECT
*End Step
