*Heading
** Job name: Analysis-ShellShell-origprop Model name: Shell-Shell
** Generated by: Abaqus/CAE 2019
*Preprint, echo=NO, model=NO, history=NO, contact=NO
**
** PARTS
**
*Part, name=LARCH
*Node
      1,           0.,   737.419983,   494.829987
      2,           0.,   737.419983,        472.5
      3,           0.,   737.419983,   450.170013
      4,   18.4307594,   729.309082,   494.829987
      5,    18.432291,   729.308411,   472.500031
      6,   18.4338017,   729.307739,   450.170044
      7,   36.8244553,   721.114624,   494.829987
      8,   36.8274918,    721.11322,   472.500031
      9,   36.8305206,   721.111877,   450.170074
     10,   55.1427612,   712.753052,   494.829987
     11,   55.1472855,   712.750977,   472.500031
     12,   55.1518097,   712.748901,   450.170074
     13,   73.3448639,   704.141785,   494.829987
     14,   73.3508606,   704.138855,   472.500061
     15,   73.3568344,   704.135986,   450.170105
     16,   91.3862991,   695.199097,   494.829987
     17,   91.3936996,   695.195313,   472.500031
     18,   91.4011154,   695.191528,   450.170074
     19,   109.217964,   685.845459,   494.829987
     20,   109.226746,   685.840698,   472.500031
** ... 127 like lines cut
*Element, type=S4R
 1,   1,   2,   5,   4
 2,   2,   3,   6,   5
 3,   4,   5,   8,   7
 4,   5,   6,   9,   8
 5,   7,   8,  11,  10
 6,   8,   9,  12,  11
 7,  10,  11,  14,  13
 8,  11,  12,  15,  14
 9,  13,  14,  17,  16
10,  14,  15,  18,  17
11,  16,  17,  20,  19
12,  17,  18,  21,  20
13,  19,  20,  23,  22
14,  20,  21,  24,  23
15,  22,  23,  26,  25
16,  23,  24,  27,  26
17,  25,  26,  29,  28
18,  26,  27,  30,  29
19,  28,  29,  32,  31
20,  29,  30,  33,  32
** ... 76 like lines cut
*Node
    148,           0.,           0.,           0.
*Nset, nset=LARCH-RefPt_, internal
148, 
*Nset, nset=_PickedSet33, internal, generate
   1,  147,    1
*Elset, elset=_PickedSet33, internal, generate
  1,  96,   1
** Section: LARCH
*Shell Section, elset=_PickedSet33, material=RIB/ARCH
68.77, 5
*End Part
**  
*Part, name=LFILL
*Node
      1,    542.51001,           0.,   494.829987
      2,   542.169983,           0.,         456.
      3,   554.549988,           0.,         456.
      4,   566.429993,           0.,   440.600006
      5,   581.830017,           0.,   420.640015
      6,   590.169983,           0.,   411.420013
      7,   634.830017,           0.,   411.420013
      8,   634.830017,           0.,   494.829987
      9,         586.,           0.,   416.029999
     10,        612.5,           0.,   411.420013
     11,   634.830017,           0.,   439.223328
     12,   634.830017,           0.,   467.026672
     13,   604.056641,           0.,   494.829987
     14,   573.283325,           0.,   494.829987
     15,   600.761475,           0.,   430.929596
     16,   563.660461,           0.,   467.383667
     17,   572.186584,           0.,   449.136963
     18,   614.942383,           0.,   435.060516
     19,   583.408508,           0.,    445.19043
     20,   581.175537,           0.,   469.222992
** ... 222 like lines cut
*Element, type=C3D8R
  1,   1,  16,   3,   2,  23,  38,  25,  24
  2,  19,  17,  16,  20,  41,  39,  38,  42
  3,  20,  21,  22,  19,  42,  43,  44,  41
  4,   6,   9,  22,  15,  28,  31,  44,  37
  5,  18,  10,   6,  15,  40,  32,  28,  37
  6,  10,  18,  11,   7,  32,  40,  33,  29
  7,   8,  12,  21,  13,  30,  34,  43,  35
  8,   4,   3,  16,  17,  26,  25,  38,  39
  9,  20,  16,   1,  14,  42,  38,  23,  36
 10,  17,  19,   5,   4,  39,  41,  27,  26
 11,   9,   5,  19,  22,  31,  27,  41,  44
 12,  12,  11,  18,  21,  34,  33,  40,  43
 13,  21,  20,  14,  13,  43,  42,  36,  35
 14,  21,  18,  15,  22,  43,  40,  37,  44
 15,  23,  38,  25,  24,  45,  60,  47,  46
 16,  41,  39,  38,  42,  63,  61,  60,  64
 17,  42,  43,  44,  41,  64,  65,  66,  63
 18,  28,  31,  44,  37,  50,  53,  66,  59
 19,  40,  32,  28,  37,  62,  54,  50,  59
 20,  32,  40,  33,  29,  54,  62,  55,  51
** ... 120 like lines cut
*Node
    243,           0.,           0.,           0.
*Nset, nset=LFILL-RefPt_, internal
243, 
*Nset, nset=_PickedSet101, internal, generate
   1,  242,    1
*Elset, elset=_PickedSet101, internal, generate
   1,  140,    1
** Section: FILL
*Solid Section, elset=_PickedSet101, material=GRAVEL
,
*End Part
**  
*Part, name=LWEB
*Node
      1,           0.,   737.419983,   411.809082
      2,           0.,   737.419983,   373.448181
      3,           0.,   737.419983,    335.08728
      4,           0.,   737.419983,   296.726349
      5,           0.,   737.419983,   258.365448
      6,           0.,   737.419983,   220.004547
      7,           0.,   737.419983,   181.643631
      8,           0.,   737.419983,    143.28273
      9,           0.,   737.419983,   104.921822
     10,           0.,   737.419983,   66.5609055
     11,           0.,   737.419983,   450.170013
     12,           0.,   737.419983,   28.2000008
     13,   30.6659203,   726.954529,   51.8540916
     14,   61.2010803,   715.901062,   75.4083252
     15,   91.4535065,   703.679077,   98.7464752
     16,   121.276093,   689.880249,   121.755196
     17,   150.588547,   674.436951,   144.370789
     18,   179.314835,   657.325134,   166.532623
     19,   207.379486,   638.540466,   188.181412
     20,   234.725098,    618.13324,   209.274628
** ... 135 like lines cut
*Element, type=S3
1, 104,  96,  97
2,  83,  87,  82
3, 102, 106,  99
4, 143,   1,   2
5, 151,  64,  63
*Element, type=S4R
  6,  41,  11,   1, 143
  7, 116, 115, 132, 130
  8, 128, 130, 129, 127
  9, 138, 137, 127, 129
 10,   4,   5, 137, 138
 11, 137, 145, 124, 127
 12, 145, 136, 154, 124
 13, 121, 154, 136, 135
 14, 123, 126, 124, 154
 15, 122, 118, 112, 111
 16,  15,  16, 150, 149
 17, 149, 146,  14,  15
 18,  13, 134,  10,  12
 19,   3,   4, 138, 139
 20, 139, 138, 129, 131
 21,   2,   3, 139, 143
 22,  41, 143, 133,  42
 23, 120, 153, 121, 119
 24,   6,   7, 136, 145
 25,   7,   8, 135, 136
** ... 100 like lines cut
*Node
    156,           0.,           0.,           0.
*Nset, nset=LWEB-RefPt_, internal
156, 
*Nset, nset=_PickedSet40, internal, generate
   1,  155,    1
*Elset, elset=_PickedSet40, internal, generate
   1,  125,    1
*Nset, nset=_PickedSet46, internal
  11,  40,  41,  42,  43,  44,  45,  46,  47,  48,  49,  50,  51,  52,  53,  54
  55,  56,  57,  58,  59,  60,  61,  62, 140
*Elset, elset=_PickedSet46, internal
   6,  22,  33,  43,  50,  60,  67,  75,  77,  79,  80,  81,  82,  84,  85,  87
  88,  89,  90,  96, 104, 105, 106, 118
*Elset, elset=__PickedSurf45_SPOS, internal, generate
   1,  125,    1
*Surface, type=ELEMENT, name=_PickedSurf45, internal
__PickedSurf45_SPOS, SPOS
*Distribution, name=Ori-1-DiscOrient, location=ELEMENT, Table=Ori-1-DiscOrient_Table
** Description: Distribution generated from Discrete Orientation
,           1.,           0.,           0.,           0.,           1.,           0.
1, 0.0360653512179852, 0.0471531823277473, -0.998236298561096, 0.807162523269653, -0.590327978134155, 0.00127700960729271
2, 0.0450204871594906, 0.0484642647206783, -0.997809827327728, 0.73776787519455, -0.675054371356964, 0.000499753572512418
3, 0.0267416816204786, 0.0380469113588333, -0.998918116092682, 0.852004945278168, -0.523525893688202, 0.00286860321648419
4,           0.,           0.,          -1., 0.92875212430954, -0.3707015812397, 1.75467903318349e-06
5, 0.120170496404171, 0.0600384548306465, -0.99093621969223, 0.440476655960083, -0.897763609886169, -0.000976898823864758
6, 0.00497106974944472, 0.0112570766359568, -0.99992436170578, 0.912826001644135, -0.408348679542542, -5.90954441577196e-05
7, 0.0152294421568513, 0.0263824500143528, -0.999535918235779, 0.868824243545532, -0.495120614767075, 0.000169292921782471
8, 0.00550706824287772, 0.0109997652471066, -0.99992436170578, 0.912418961524963, -0.409256964921951, 0.000523062073625624
9, 0.00515448208898306, 0.0111750271171331, -0.999924302101135, 0.912825047969818, -0.408350944519043, 0.000141818061820231
10,           0.,           0.,          -1., 0.928752064704895, -0.3707015812397, 1.68121039223479e-06
11, 0.00542307738214731, 0.0118400333449244, -0.999915182590485, 0.930408596992493, -0.366523265838623, 0.000706090300809592
12, 0.00539193348959088, 0.0118523025885224, -0.999915182590485, 0.930408835411072, -0.36652284860611, 0.000672619557008147
13, 0.00536391884088516, 0.0118633378297091, -0.999915301799774, 0.930408895015717, -0.366522461175919, 0.000642512401100248
14, 0.0115922885015607, 0.0239236522465944, -0.999646544456482, 0.914394915103912, -0.404822170734406, 0.000915428041480482
15, 0.0169666446745396, 0.0279269516468048, -0.999465942382813, 0.891555488109589, -0.452904671430588, 0.00247978372499347
16, 0.0122156590223312, 0.0236476697027683, -0.9996457695961, 0.914386808872223, -0.404838383197784, 0.00159691914450377
17, 0.00561632588505745, 0.0117314662784338, -0.999915361404419, 0.929714977741241, -0.36827877163887, 0.000901208491995931
18,           0.,           0.,          -1., 0.944555640220642, -0.328351199626923, 1.72839668266533e-06
19,           0.,           0.,          -1., 0.92875200510025, -0.3707015812397, 1.67424275332451e-06
20, 0.00516314664855599, 0.0111540276557207, -0.999924540519714, 0.912420988082886, -0.409252822399139, 0.000146157064591534
** ... 105 like lines cut
*Orientation, name=Ori-1, system=RECTANGULAR
Ori-1-DiscOrient
3, 0.
** Section: LWEB
*Shell Section, elset=_PickedSet40, material=WEB, orientation=Ori-1
35., 5
*End Part
**  
*Part, name=NARCH
*Node
      1,           0.,   737.419983,  -461.820007
      2,           0.,   737.419983,  -501.394989
      3,           0.,   737.419983,  -540.969971
      4,           0.,   737.419983,  -580.544983
      5,           0.,   737.419983,  -620.119995
      6,   37.3716965,   721.497803,  -461.820007
      7,   37.3717079,   721.497803,  -501.394989
      8,   37.3717079,   721.497803,  -540.969971
      9,   37.3717079,   721.497803,  -580.544983
     10,   37.3716965,   721.497803,  -620.119995
     11,   74.4404907,   704.885559,  -461.820007
     12,   74.4404831,   704.885559,  -501.394989
     13,   74.4404831,   704.885559,  -540.969971
     14,   74.4404831,   704.885559,  -580.544983
     15,   74.4404907,   704.885559,  -620.119995
     16,   110.862373,    686.90448,  -461.820007
     17,   110.862373,    686.90448,  -501.394989
     18,   110.862373,    686.90448,  -540.969971
     19,   110.862373,    686.90448,  -580.544983
     20,   110.862373,    686.90448,  -620.119995
** ... 105 like lines cut
*Element, type=S4R
 1,   1,   2,   7,   6
 2,   2,   3,   8,   7
 3,   3,   4,   9,   8
 4,   4,   5,  10,   9
 5,   6,   7,  12,  11
 6,   7,   8,  13,  12
 7,   8,   9,  14,  13
 8,   9,  10,  15,  14
 9,  11,  12,  17,  16
10,  12,  13,  18,  17
11,  13,  14,  19,  18
12,  14,  15,  20,  19
13,  16,  17,  22,  21
14,  17,  18,  23,  22
15,  18,  19,  24,  23
16,  19,  20,  25,  24
17,  21,  22,  27,  26
18,  22,  23,  28,  27
19,  23,  24,  29,  28
20,  24,  25,  30,  29
** ... 76 like lines cut
*Node
    126,           0.,           0.,           0.
*Nset, nset=NARCH-RefPt_, internal
126, 
*Nset, nset=_PickedSet32, internal, generate
   1,  125,    1
*Elset, elset=_PickedSet32, internal, generate
  1,  96,   1
** Section: NARCH
*Shell Section, elset=_PickedSet32, material=RIB/ARCH
128.41, 5
*End Part
**  
*Part, name=NFILL
*Node
      1,   634.830017,           0.,  -411.420013
      2,   590.169983,           0.,  -411.420013
      3,   581.830017,           0.,  -420.640015
      4,   566.429993,           0.,  -440.600006
      5,   554.549988,           0.,        -456.
      6,   554.780029,           0.,  -461.820007
      7,   554.780029,           0.,  -620.119995
      8,   634.830017,           0.,  -620.119995
      9,        612.5,           0.,  -411.420013
     10,         586.,           0.,  -416.029999
     11,   554.780029,           0.,  -493.480011
     12,   554.780029,           0.,  -525.140015
     13,   554.780029,           0.,  -556.799988
     14,   554.780029,           0.,  -588.460022
     15,   581.463318,           0.,  -620.119995
     16,   608.146667,           0.,  -620.119995
     17,   634.830017,           0.,  -590.305725
     18,   634.830017,           0.,  -560.491455
     19,   634.830017,           0.,  -530.677124
     20,   634.830017,           0.,  -500.862854
** ... 376 like lines cut
*Element, type=C3D8R
  1,  27,  35,  23,  25,  63,  71,  59,  61
  2,  11,   6,  24,  26,  47,  42,  60,  62
  3,  27,  24,   6,  35,  63,  60,  42,  71
  4,   3,  10,  34,  23,  39,  46,  70,  59
  5,  25,  23,  34,   9,  61,  59,  70,  45
  6,  13,  33,  30,  14,  49,  69,  66,  50
  7,  18,  28,  29,  19,  54,  64,  65,  55
  8,  17,   8,  16,  36,  53,  44,  52,  72
  9,  30,  15,   7,  14,  66,  51,  43,  50
 10,  15,  30,  36,  16,  51,  66,  72,  52
 11,  28,  33,  32,  29,  64,  69,  68,  65
 12,   3,  23,  35,   4,  39,  59,  71,  40
 13,  25,   9,   1,  22,  61,  45,  37,  58
 14,  27,  25,  22,  21,  63,  61,  58,  57
 15,  32,  12,  11,  26,  68,  48,  47,  62
 16,  20,  19,  29,  31,  56,  55,  65,  67
 17,  12,  32,  33,  13,  48,  68,  69,  49
 18,  20,  31,  27,  21,  56,  67,  63,  57
 19,  36,  30,  33,  28,  72,  66,  69,  64
 20,  36,  28,  18,  17,  72,  64,  54,  53
** ... 220 like lines cut
*Node
    397,           0.,           0.,           0.
*Nset, nset=NFILL-RefPt_, internal
397, 
*Nset, nset=_PickedSet96, internal, generate
   1,  396,    1
*Elset, elset=_PickedSet96, internal, generate
   1,  240,    1
** Section: FILL
*Solid Section, elset=_PickedSet96, material=GRAVEL
,
*End Part
**  
*Part, name=NWEB
*Node
      1,           0.,   737.419983,  -67.6200027
      2,           0.,   737.419983,  -107.040001
      3,           0.,   737.419983,  -146.460007
      4,           0.,   737.419983,  -185.880005
      5,           0.,   737.419983,  -225.300003
      6,           0.,   737.419983,  -264.720001
      7,           0.,   737.419983,  -304.140015
      8,           0.,   737.419983,  -343.559998
      9,           0.,   737.419983,  -382.980011
     10,           0.,   737.419983,  -422.399994
     11,           0.,   737.419983,  -28.2000008
     12,           0.,   737.419983,  -461.820007
     13,   37.3717003,   721.497742,  -461.820007
     14,   74.4405136,   704.885437,  -461.820007
     15,   110.862442,   686.904419,  -461.820007
     16,   146.251022,   666.970947,  -461.820007
     17,   180.456955,   645.068176,  -461.820007
     18,    213.50145,   621.447998,  -461.820007
     19,   245.421478,   596.328064,  -461.820007
     20,   276.175568,    569.79364,  -461.820007
** ... 145 like lines cut
*Element, type=S3
1, 165,  98,  80
2,  29, 149,  28
3,  87,  80,  85
4, 163, 123, 122
5, 117, 114, 115
*Element, type=S4R
  6,  38,  11,   1, 146
  7, 154, 145, 133, 134
  8,  40,  39, 145, 154
  9, 119,  43,  42, 155
 10, 153, 155,  42,  41
 11, 116, 111, 119, 118
 12, 110,  99, 111, 116
 13,  45,  99, 101,  46
 14, 101,  99, 100, 102
 15,  91,  97, 100, 108
 16,  96,  97,  91, 109
 17,  98,  96,  92,  94
 18,  94,  92,  93,  95
 19,  95,  93,  18,  19
 20,  95,  19,  82,  81
 21,  20,  84,  82,  19
 22, 150, 144,  21,  22
 23,  71,  73,  74,  78
 24,  72,  51,  50, 148
 25,  87, 161,  86,  80
** ... 110 like lines cut
*Node
    166,           0.,           0.,           0.
*Nset, nset=NWEB-RefPt_, internal
166, 
*Nset, nset=_PickedSet31, internal, generate
   1,  165,    1
*Elset, elset=_PickedSet31, internal, generate
   1,  135,    1
*Nset, nset=_PickedSet36, internal, generate
 12,  36,   1
*Elset, elset=_PickedSet36, internal
   2,  19,  21,  22,  45,  62,  66,  67,  72,  74,  76,  83,  84,  89,  92,  94
  97,  98,  99, 100, 101, 102, 103, 120
*Elset, elset=__PickedSurf35_SPOS, internal, generate
   1,  135,    1
*Surface, type=ELEMENT, name=_PickedSurf35, internal
__PickedSurf35_SPOS, SPOS
*Distribution, name=Ori-1-DiscOrient-1, location=ELEMENT, Table=Ori-1-DiscOrient-1_Table
** Description: Distribution generated from Discrete Orientation
,           1.,           0.,           0.,           0.,           1.,           0.
1, -0.0280683152377605, -0.0339971221983433, -0.999027729034424, 0.77880471944809, -0.62726628780365, -0.000535005528945476
2, 0.0124624455347657, 0.00594647508114576, -0.999904632568359, 0.460307210683823, -0.887759566307068, 0.000457556481705979
3, -0.0269798822700977, -0.0309243462979794, -0.999157547950745, 0.761547863483429, -0.64810848236084, -0.000504564552102238
4, -0.00412944238632917, -0.00894836708903313, -0.999951481819153, 0.914843499660492, -0.403808623552322, -0.000164373253937811
5, -0.0155141139402986, -0.0272953696548939, -0.999507069587708, 0.882435202598572, -0.470433235168457, -0.000849970267154276
6,           0.,           0.,          -1., 0.944555699825287, -0.328351229429245,           0.
7, -0.00431359512731433, -0.00953110959380865, -0.999945223331451, 0.929051637649536, -0.369949668645859, -0.000481547933304682
8, -0.00438710721209645, -0.00950183719396591, -0.999945163726807, 0.929051280021667, -0.369950413703918, -0.000560669752303511
9, -0.0150027126073837, -0.0242458879947662, -0.999593436717987, 0.85769784450531, -0.514153897762299, -0.000401838769903407
10, -0.00960404798388481, -0.0172065664082766, -0.999805808067322, 0.897443234920502, -0.441128730773926, -0.00102897651959211
11, -0.0153745282441378, -0.0240230020135641, -0.999593198299408, 0.857691287994385, -0.514164388179779, -0.000835165963508189
12, -0.0161916110664606, -0.0235331635922194, -0.999591886997223, 0.857676208019257, -0.514187037944794, -0.00178744143340737
13, -0.0228171665221453, -0.0285297315567732, -0.99933248758316, 0.811937630176544, -0.583741188049316, -0.00187338748946786
14, -0.022563960403204, -0.0287117697298527, -0.999333024024963, 0.811944663524628, -0.5837322473526, -0.00156174320727587
15, -0.0215997118502855, -0.029404966160655, -0.999334156513214, 0.811970889568329, -0.583697736263275, -0.000374975003069267
16, -0.0216028746217489, -0.0294026955962181, -0.999334216117859, 0.811970949172974, -0.583697915077209, -0.000378866243408993
17, -0.0270448140799999, -0.0348214246332645, -0.99902755022049, 0.778840899467468, -0.627221047878265, 0.000777880428358912
18, -0.0270001012831926, -0.0348574258387089, -0.999027490615845, 0.778842389583588, -0.627219080924988, 0.000835231272503734
19, -0.0271300133317709, -0.0347528122365475, -0.999027669429779, 0.778837978839874, -0.627224862575531, 0.000668593449518085
20, -0.028274005278945, -0.0338314548134804, -0.999027490615845, 0.778797209262848, -0.627275228500366, -0.000798862078227103
** ... 115 like lines cut
*Orientation, name=Ori-1, system=RECTANGULAR
Ori-1-DiscOrient-1
3, 0.
** Section: NWEB
*Shell Section, elset=_PickedSet31, material=WEB, orientation=Ori-1
35., 5
*End Part
**  
*Part, name=RARCH-merged
*Node
      1,           0.,   737.419983,           0.
      2,   36.5600014,   737.419983,           0.
      3,   581.830017,           0.,  -420.640015
      4,   566.429199,           0.,  -440.602356
      5,           0.,   737.419983,  -28.2000008
      6,   554.549988,           0.,        -456.
      7,   566.429199,           0.,   440.602356
      8,   581.830017,           0.,   420.640015
      9,           0.,   737.419983,   28.2000008
     10,   554.549988,           0.,         456.
     11,   51.5731621,   731.493225,  -11.5800037
     12,   66.5742188,   725.518127,  -23.1508236
     13,   81.5507813,   719.446472,  -34.7030487
     14,   96.4898834,   713.230286,  -46.2268219
     15,   111.377708,   706.822083,  -57.7116394
     16,   126.199776,   700.176514,   -69.146431
     17,   140.942474,   693.256104,  -80.5205536
     18,   155.591476,   686.025879,  -91.8227081
     19,   170.130905,   678.451416,  -103.040428
     20,   184.543198,   670.498779,  -114.159958
** ... 308 like lines cut
*Element, type=S4R
 1,   1,   2,  11, 116
 2, 116,  11,  12, 115
 3, 115,  12,  13, 114
 4, 114,  13,  14, 113
 5, 113,  14,  15, 112
 6, 112,  15,  16, 111
 7, 111,  16,  17, 110
 8, 110,  17,  18, 109
 9, 109,  18,  19, 108
10, 108,  19,  20, 107
11, 107,  20,  21, 106
12, 106,  21,  22, 105
13, 105,  22,  23, 104
14, 104,  23,  24, 103
15, 103,  24,  25, 102
16, 102,  25,  26, 101
17, 101,  26,  27, 100
18, 100,  27,  28,  99
19,  99,  28,  29,  98
20,  98,  29,  30,  97
** ... 196 like lines cut
*Nset, nset=_PickedSet2, internal, generate
   1,  328,    1
*Elset, elset=_PickedSet2, internal, generate
   1,  216,    1
** Section: RARCH
*Shell Section, elset=_PickedSet2, material=RIB/ARCH
68.77, 5
*End Part
**  
*Part, name=TARCH-merged
*Node
      1,   634.830017,   737.419983,           0.
      2,   590.169983,   737.419983,           0.
      3,   590.169983,           0.,  -411.420013
      4,   634.830017,           0.,  -411.420013
      5,   634.830017,           0.,   411.420013
      6,   590.169983,           0.,   411.420013
      7,        612.5,   737.419983,           0.
      8,   590.169983,   726.100586,  -16.5462093
      9,   590.169983,   714.712646,  -33.0453453
     10,   590.169983,   703.188232,  -49.4493332
     11,   590.169983,   691.460022,  -65.7081299
     12,   590.169983,   679.462158,  -81.7688599
     13,   590.169983,   667.131226,  -97.5750656
     14,   590.169983,   654.406982,  -113.066231
     15,   590.169983,   641.243347,  -128.185654
     16,   590.169983,   627.652344,  -142.922195
     17,   590.169983,   613.665344,  -157.283493
     18,   590.169983,   599.311951,  -171.278732
     19,   590.169983,   584.620056,  -184.918243
     20,   590.169983,   569.615723,  -198.213272
** ... 247 like lines cut
*Element, type=S4R
 1,   1,   7, 182,  94
 2,   7,   2,   8, 182
 3,  94, 182, 183,  93
 4, 182,   8,   9, 183
 5,  93, 183, 184,  92
 6, 183,   9,  10, 184
 7,  92, 184, 185,  91
 8, 184,  10,  11, 185
 9,  91, 185, 186,  90
10, 185,  11,  12, 186
11,  90, 186, 187,  89
12, 186,  12,  13, 187
13,  89, 187, 188,  88
14, 187,  13,  14, 188
15,  88, 188, 189,  87
16, 188,  14,  15, 189
17,  87, 189, 190,  86
18, 189,  15,  16, 190
19,  86, 190, 191,  85
20, 190,  16,  17, 191
** ... 156 like lines cut
*Nset, nset=_PickedSet2, internal, generate
   1,  267,    1
*Elset, elset=_PickedSet2, internal, generate
   1,  176,    1
** Section: TARCH
*Shell Section, elset=_PickedSet2, material=RIB/ARCH
68.77, 5
*End Part
**  
*Part, name=TWEB-merged
*Node
      1,   590.169983,   737.419983,           0.
      2,   36.5600014,   737.419983,           0.
      3,   581.830017,           0.,  -420.640015
      4,   590.169983,           0.,  -411.420013
      5,   590.169983,           0.,   411.420013
      6,   581.830017,           0.,   420.640015
      7,   550.626404,   737.419983,           0.
      8,   511.082855,   737.419983,           0.
      9,   471.539276,   737.419983,           0.
     10,   431.995728,   737.419983,           0.
     11,   392.452148,   737.419983,           0.
     12,   352.908569,   737.419983,           0.
     13,    313.36499,   737.419983,           0.
     14,   273.821442,   737.419983,           0.
     15,   234.277863,   737.419983,           0.
     16,   194.734283,   737.419983,           0.
     17,    155.19072,   737.419983,           0.
     18,   115.647141,   737.419983,           0.
     19,    76.103569,   737.419983,           0.
     20,   66.5527039,   725.526306,  -23.1342278
** ... 305 like lines cut
*Element, type=S3
1, 128, 130, 129
2, 135, 143, 137
3, 212, 170, 171
4, 202, 154, 214
136, 216, 221, 222
137, 225, 317, 316
138, 323, 308, 271
139,  83, 305,  82
*Element, type=S4R
  5, 181,  66,   1,   7
  6, 182, 183, 170, 169
  7, 212, 171, 213, 164
  8, 171, 172, 160, 213
  9, 147, 152, 189, 153
 10, 145, 152, 147, 139
 11, 137, 143, 149, 138
 12, 150, 142, 141, 148
 13, 159, 150, 148, 158
 14, 202, 214, 159, 164
 15, 211, 169, 170, 212
 16, 163, 164, 159, 158
 17,  19,   2,  20, 203
 18, 204, 207,  17,  18
 19, 203,  20,  21, 205
 20, 153, 157,  26,  27
 21, 147, 153,  27,  28
 22, 139,  29,  30, 140
 23, 140,  30,  31, 131
 24,  31,  32, 193, 131
** ... 250 like lines cut
*Nset, nset=_PickedSet2, internal, generate
   1,  325,    1
*Elset, elset=_PickedSet2, internal, generate
   1,  278,    1
*Nset, nset=_PickedSet7, internal
  1,  5, 67, 68, 69, 70, 71, 72, 73, 74, 75, 76, 77, 78, 79, 80
 81, 82, 83, 84, 85, 86, 87
*Elset, elset=_PickedSet7, internal
 139, 146, 147, 148, 170, 175, 188, 189, 193, 201, 204, 209, 211, 212, 214, 215
 216, 247, 248, 249, 253, 267
*Nset, nset=_PickedSet10, internal
  1,  4, 46, 47, 48, 49, 50, 51, 52, 53, 54, 55, 56, 57, 58, 59
 60, 61, 62, 63, 64, 65, 66
*Elset, elset=_PickedSet10, internal
   5,  29,  30,  54,  55,  56,  57,  58,  59,  60,  61,  63,  66,  67,  69,  70
  71,  72,  83,  86, 121, 128
*Elset, elset=__PickedSurf6_SPOS, internal, generate
 136,  278,    1
*Surface, type=ELEMENT, name=_PickedSurf6, internal
__PickedSurf6_SPOS, SPOS
*Elset, elset=__PickedSurf9_SPOS, internal, generate
   1,  135,    1
*Surface, type=ELEMENT, name=_PickedSurf9, internal
__PickedSurf9_SPOS, SPOS
*Distribution, name=Ori-2-DiscOrient, location=ELEMENT, Table=Ori-2-DiscOrient_Table
** Description: Distribution generated from Discrete Orientation
,           1.,           0.,           0.,           0.,           1.,           0.
1, -0.998201429843903, 0.0353508405387402, -0.0484167970716953, 0.000489199999719858, -0.802804589271545, -0.596242189407349
2, -0.998825430870056, 0.0323205776512623, -0.0361004620790482, -9.69597240327857e-05, -0.746366143226624, -0.665535569190979
3, -0.999742388725281, 0.018172699958086, -0.0135988099500537, 0.000144526216899976, -0.59402459859848, -0.804446876049042
4, -0.999427020549774, 0.0249434970319271, -0.0228776577860117, 0.00148383318446577, -0.642989575862885, -0.765873491764069
5, -0.999940574169159, 0.00899063516408205, -0.00616747373715043, -3.56620985257905e-05, -0.568376362323761, -0.822768688201904
6, -0.99993371963501, 0.00939351972192526, -0.00665965303778648, 0.000442813819972798, -0.546561360359192, -0.837418973445892
7, -0.999722242355347, 0.018550181761384, -0.0145379137247801, 0.00107538281008601, -0.580298364162445, -0.814403235912323
8, -0.999722421169281, 0.0186656769365072, -0.0143758235499263, 0.00087640923447907, -0.580294668674469, -0.814406156539917
9, -0.998933911323547, 0.032975111156702, -0.0323061794042587, 0.00148814753629267, -0.676458060741425, -0.736479580402374
10, -0.998406827449799, 0.0389388501644135, -0.0408360436558723, 0.0010222711134702, -0.711116969585419, -0.703072965145111
11, -0.999212324619293, 0.0267415288835764, -0.0293176751583815, 0.00130849587731063, -0.716215431690216, -0.697878003120422
12, -0.999212861061096, 0.0270713083446026, -0.0289963316172361, 0.00084840547060594, -0.716203033924103, -0.697891414165497
13, -0.999267637729645, 0.0274763256311417, -0.026632409542799, 0.0011556112440303, -0.674006998538971, -0.738724052906036
14, -0.999427556991577, 0.0252036713063717, -0.0225677564740181, 0.00107942870818079, -0.642979383468628, -0.765882670879364
15, -0.999742388725281, 0.0182276051491499, -0.0135244559496641, 5.21216825291049e-05, -0.594022929668427, -0.804448187351227
16, -0.999481618404388, 0.0243582632392645, -0.021054795011878, -0.000171861131093465, -0.657968997955322, -0.753045082092285
17,          -1.,           0.,           0.,           0., -0.461172133684158, -0.887310743331909
18,          -1.,           0.,           0.,           0., -0.461172103881836, -0.887310683727264
19,          -1.,           0.,           0.,           0., -0.461172133684158, -0.887310743331909
20, -0.998934209346771, 0.0331246107816696, -0.0321434177458286, 0.00126738345716149, -0.676450788974762, -0.736486732959747
** ... 115 like lines cut
*Orientation, name=Ori-2, system=RECTANGULAR
Ori-2-DiscOrient
3, 0.
** Region: (TWEB:Picked), (Material Orientation:Picked)
*Elset, elset=_I1, internal, generate
   1,  135,    1
** Section: TWEB
*Shell Section, elset=_I1, material=WEB, orientation=Ori-2
35., 5
*Distribution, name=Ori-1-DiscOrient-2, location=ELEMENT, Table=Ori-1-DiscOrient-2_Table
** Description: Distribution generated from Discrete Orientation
,           1.,           0.,           0.,           0.,           1.,           0.
136, 0.999364018440247, -0.0146481655538082, -0.0325114503502846, 0.000257200852502137, -0.908747613430023, 0.417345941066742
137, 0.998888552188873, -0.0218855515122414, -0.0417471826076508, 0.000713922723662108, -0.878548502922058, 0.47765251994133
138, 0.99958348274231, -0.0222663432359695, -0.0183627419173717, 0.000936314172577113, -0.610885798931122, 0.791718184947968
139, 0.999996364116669, -0.000696393253747374, -0.00261267507448792, 6.78913274896331e-05, -0.959492921829224, 0.281732499599457
140,           1.,           0.,           0.,           0., -0.461172074079514, 0.88731062412262
141,           1.,           0.,           0.,           0., -0.461172074079514, 0.887310683727264
142,           1.,           0.,           0.,           0., -0.461172133684158, 0.887310743331909
143, 0.999923884868622, -0.0101079437881708, -0.00707218144088984, 0.000834815960843116, -0.516521632671356, 0.856273770332336
144, 0.999912559986115, -0.0108255967497826, -0.0075949770398438, 0.00141150108538568, -0.483676940202713, 0.875245451927185
145, 0.999933779239655, -0.00940786860883236, -0.00663766963407397, 0.000416563736507669, -0.546561181545258, 0.837419152259827
146, 0.999742329120636, -0.0185090601444244, -0.013143296353519, -0.000421569595346227, -0.594014227390289, 0.804454445838928
147, 0.999742388725281, -0.0180707648396492, -0.0137368552386761, 0.000316084770020097, -0.594027698040009, 0.804444491863251
148, 0.999583125114441, -0.0221007280051708, -0.0185773801058531, 0.00120730535127223, -0.610891819000244, 0.791713178157806
149, 0.998933494091034, -0.0328061431646347, -0.0324901416897774, 0.0017376666655764, -0.676466345787048, 0.736471474170685
150, 0.999427199363708, -0.0249882210046053, -0.0228243879973888, 0.00141431926749647, -0.642987787723541, 0.765875041484833
151, 0.999085903167725, -0.0315263643860817, -0.0288679338991642, 0.00201695458963513, -0.639808058738708, 0.768532037734985
152, 0.99958324432373, -0.0221685152500868, -0.0184895247220993, 0.00109638483263552, -0.610889375209808, 0.791715204715729
153, 0.999742388725281, -0.0181064140051603, -0.0136885782703757, 0.000256087019806728, -0.594026625156403, 0.804445326328278
154, 0.998188257217407, -0.0389490202069283, -0.0458617620170116, 0.000309373979689553, -0.758881330490112, 0.651228845119476
155, 0.999912202358246, -0.0107089700177312, -0.0078060207888484, 0.00165260501671582, -0.483679562807083, 0.875243663787842
** ... 123 like lines cut
*Orientation, name=Ori-1, system=RECTANGULAR
Ori-1-DiscOrient-2
3, 0.
** Region: (TWEB:Picked), (Material Orientation:Picked)
*Elset, elset=_I2, internal, generate
 136,  278,    1
** Section: TWEB
*Shell Section, elset=_I2, material=WEB, orientation=Ori-1
35., 5
*End Part
**  
**
** ASSEMBLY
**
*Assembly, name=Assembly
**  
*Instance, name=LARCH-1, part=LARCH
*End Instance
**  
*Instance, name=LWEB-1, part=LWEB
*End Instance
**  
*Instance, name=NARCH-1, part=NARCH
*End Instance
**  
*Instance, name=NWEB-1, part=NWEB
*End Instance
**  
*Instance, name=TWEB-merged-1, part=TWEB-merged
*End Instance
**  
*Instance, name=TARCH-merged-1, part=TARCH-merged
*End Instance
**  
*Instance, name=RARCH-merged-1, part=RARCH-merged
*End Instance
**  
*Instance, name=LFILL-1, part=LFILL
*End Instance
**  
*Instance, name=NFILL-1, part=NFILL
*End Instance
**  
*Nset, nset=_PickedSet32, internal, instance=LARCH-1, generate
   3,  147,    3
*Elset, elset=_PickedSet32, internal, instance=LARCH-1, generate
  2,  96,   2
*Nset, nset=_PickedSet33, internal, instance=LWEB-1
  11,  40,  41,  42,  43,  44,  45,  46,  47,  48,  49,  50,  51,  52,  53,  54
  55,  56,  57,  58,  59,  60,  61,  62, 140
*Elset, elset=_PickedSet33, internal, instance=LWEB-1
   6,  22,  33,  43,  50,  60,  67,  75,  77,  79,  80,  81,  82,  84,  85,  87
  88,  89,  90,  96, 104, 105, 106, 118
*Nset, nset=_PickedSet34, internal, instance=RARCH-merged-1
   9,  10, 276, 277, 278, 279, 280, 281, 282, 283, 284, 285, 286, 287, 288, 289
 290, 291, 292, 293, 294, 295, 296, 297, 298, 299, 300, 301, 302, 303, 304, 305
 306, 307, 308, 309, 310, 311, 312, 313, 314, 315, 316, 317, 318, 319, 320, 321
 322, 323, 324, 325, 326, 327, 328
*Elset, elset=_PickedSet34, internal, instance=RARCH-merged-1, generate
 163,  216,    1
*Nset, nset=_PickedSet35, internal, instance=LWEB-1, generate
 12,  39,   1
*Elset, elset=_PickedSet35, internal, instance=LWEB-1
  16,  17,  18,  29,  30,  35,  37,  48,  52,  65,  68,  72,  83,  86,  87,  88
  89,  90,  91,  97,  98, 100, 102, 103, 104, 105, 106
*Nset, nset=_PickedSet36, internal, instance=RARCH-merged-1
   2,   3,   8,  11,  12,  13,  14,  15,  16,  17,  18,  19,  20,  21,  22,  23
  24,  25,  26,  27,  28,  29,  30,  31,  32,  33,  34,  35,  36,  37,  38,  39
  40,  41,  42,  43,  44,  45,  46,  47,  48,  49,  50,  51,  52,  53,  54,  55
  56,  57,  58,  59,  60,  61,  62,  63, 223, 224, 225, 226, 227, 228, 229, 230
 231, 232, 233, 234, 235, 236, 237, 238, 239, 240, 241, 242, 243, 244, 245, 246
 247, 248, 249, 250, 251, 252, 253, 254, 255, 256, 257, 258, 259, 260, 261, 262
 263, 264, 265, 266, 267, 268, 269, 270, 271, 272, 273, 274, 275
*Elset, elset=_PickedSet36, internal, instance=RARCH-merged-1
   1,   2,   3,   4,   5,   6,   7,   8,   9,  10,  11,  12,  13,  14,  15,  16
  17,  18,  19,  20,  21,  22,  23,  24,  25,  26,  27,  28,  29,  30,  31,  32
  33,  34,  35,  36,  37,  38,  39,  40,  41,  42,  43,  44,  45,  46,  47,  48
  49,  50,  51,  52,  53,  54, 109, 110, 111, 112, 113, 114, 115, 116, 117, 118
 119, 120, 121, 122, 123, 124, 125, 126, 127, 128, 129, 130, 131, 132, 133, 134
 135, 136, 137, 138, 139, 140, 141, 142, 143, 144, 145, 146, 147, 148, 149, 150
 151, 152, 153, 154, 155, 156, 157, 158, 159, 160, 161, 162
*Nset, nset=_PickedSet37, internal, instance=TWEB-merged-1
   2,   3,   6,  20,  21,  22,  23,  24,  25,  26,  27,  28,  29,  30,  31,  32
  33,  34,  35,  36,  37,  38,  39,  40,  41,  42,  43,  44,  45,  88,  89,  90
  91,  92,  93,  94,  95,  96,  97,  98,  99, 100, 101, 102, 103, 104, 105, 106
 107, 108, 109, 110, 111, 112, 113
*Elset, elset=_PickedSet37, internal, instance=TWEB-merged-1
  17,  19,  20,  21,  22,  23,  24,  25,  26,  32,  36,  40,  49,  50,  51,  52
  53,  55,  56,  58,  59,  60,  74,  78,  81, 125, 127, 140, 141, 155, 172, 173
 181, 183, 192, 199, 200, 203, 210, 213, 214, 215, 216, 217, 219, 223, 232, 240
 242, 245, 247, 248, 257, 270
*Nset, nset=_PickedSet38, internal, instance=TARCH-merged-1
   2,   3,   6,   8,   9,  10,  11,  12,  13,  14,  15,  16,  17,  18,  19,  20
  21,  22,  23,  24,  25,  26,  27,  28,  29,  30,  31,  32,  33,  34,  35,  36
  37,  38,  39,  40,  41,  42,  43,  44,  45,  46,  47,  48,  49,  50, 139, 140
 141, 142, 143, 144, 145, 146, 147, 148, 149, 150, 151, 152, 153, 154, 155, 156
 157, 158, 159, 160, 161, 162, 163, 164, 165, 166, 167, 168, 169, 170, 171, 172
 173, 174, 175, 176, 177, 178, 179, 180, 181
*Elset, elset=_PickedSet38, internal, instance=TARCH-merged-1
   2,   4,   6,   8,  10,  12,  14,  16,  18,  20,  22,  24,  26,  28,  30,  32
  34,  36,  38,  40,  42,  44,  46,  48,  50,  52,  54,  56,  58,  60,  62,  64
  66,  68,  70,  72,  74,  76,  78,  80,  82,  84,  86,  88,  89,  91,  93,  95
  97,  99, 101, 103, 105, 107, 109, 111, 113, 115, 117, 119, 121, 123, 125, 127
 129, 131, 133, 135, 137, 139, 141, 143, 145, 147, 149, 151, 153, 155, 157, 159
 161, 163, 165, 167, 169, 171, 173, 175
*Nset, nset=_PickedSet39, internal, instance=TWEB-merged-1
  1,  4,  5, 46, 47, 48, 49, 50, 51, 52, 53, 54, 55, 56, 57, 58
 59, 60, 61, 62, 63, 64, 65, 66, 67, 68, 69, 70, 71, 72, 73, 74
 75, 76, 77, 78, 79, 80, 81, 82, 83, 84, 85, 86, 87
*Elset, elset=_PickedSet39, internal, instance=TWEB-merged-1
   5,  29,  30,  54,  55,  56,  57,  58,  59,  60,  61,  63,  66,  67,  69,  70
  71,  72,  83,  86, 121, 128, 139, 146, 147, 148, 170, 175, 188, 189, 193, 201
 204, 209, 211, 212, 214, 215, 216, 247, 248, 249, 253, 267
*Nset, nset=_PickedSet40, internal, instance=RARCH-merged-1
   5,   6, 117, 118, 119, 120, 121, 122, 123, 124, 125, 126, 127, 128, 129, 130
 131, 132, 133, 134, 135, 136, 137, 138, 139, 140, 141, 142, 143, 144, 145, 146
 147, 148, 149, 150, 151, 152, 153, 154, 155, 156, 157, 158, 159, 160, 161, 162
 163, 164, 165, 166, 167, 168, 169
*Elset, elset=_PickedSet40, internal, instance=RARCH-merged-1, generate
  55,  108,    1
*Nset, nset=_PickedSet41, internal, instance=NWEB-1
  11,  37,  38,  39,  40,  41,  42,  43,  44,  45,  46,  47,  48,  49,  50,  51
  52,  53,  54,  55,  56,  57,  58,  59,  60,  61,  62, 141
*Elset, elset=_PickedSet41, internal, instance=NWEB-1
   6,   8,   9,  10,  13,  24,  33,  41,  79,  81,  86,  91,  95,  96,  97,  98
  99, 100, 101, 102, 103, 104, 113, 114, 117, 118, 121
*Nset, nset=_PickedSet42, internal, instance=NARCH-1, generate
   1,  121,    5
*Elset, elset=_PickedSet42, internal, instance=NARCH-1, generate
  1,  93,   4
*Nset, nset=_PickedSet43, internal, instance=NWEB-1, generate
 12,  36,   1
*Elset, elset=_PickedSet43, internal, instance=NWEB-1
   2,  19,  21,  22,  45,  62,  66,  67,  72,  74,  76,  83,  84,  89,  92,  94
  97,  98,  99, 100, 101, 102, 103, 120
*Nset, nset=_PickedSet44, internal, instance=LARCH-1, generate
 145,  147,    1
*Nset, nset=_PickedSet44, internal, instance=LWEB-1
 39, 40
*Nset, nset=_PickedSet44, internal, instance=NWEB-1
 36, 37
*Nset, nset=_PickedSet44, internal, instance=TARCH-merged-1
   3,   4,   5,   6,  51, 138
*Nset, nset=_PickedSet44, internal, instance=NARCH-1, generate
 121,  125,    1
*Nset, nset=_PickedSet44, internal, instance=TWEB-merged-1, generate
 3,  6,  1
*Nset, nset=_PickedSet44, internal, instance=RARCH-merged-1
  3,  4,  6,  7,  8, 10
*Elset, elset=_PickedSet44, internal, instance=LARCH-1
 95, 96
*Elset, elset=_PickedSet44, internal, instance=LWEB-1
 104,
*Elset, elset=_PickedSet44, internal, instance=NWEB-1
 103,
*Elset, elset=_PickedSet44, internal, instance=TARCH-merged-1
  87,  88, 175, 176
*Elset, elset=_PickedSet44, internal, instance=NARCH-1, generate
 93,  96,   1
*Elset, elset=_PickedSet44, internal, instance=TWEB-merged-1
  59, 216
*Elset, elset=_PickedSet44, internal, instance=RARCH-merged-1, generate
  54,  216,   54
*Nset, nset=_PickedSet45, internal, instance=LARCH-1, generate
 1,  3,  1
*Nset, nset=_PickedSet45, internal, instance=LWEB-1, generate
  1,  12,   1
*Nset, nset=_PickedSet45, internal, instance=NWEB-1, generate
  1,  12,   1
*Nset, nset=_PickedSet45, internal, instance=NARCH-1, generate
 1,  5,  1
*Nset, nset=_PickedSet45, internal, instance=RARCH-merged-1, generate
 1,  9,  4
*Elset, elset=_PickedSet45, internal, instance=LARCH-1
 1, 2
*Elset, elset=_PickedSet45, internal, instance=LWEB-1
   4,   6,  10,  18,  19,  21,  24,  25,  28, 117, 120
*Elset, elset=_PickedSet45, internal, instance=NWEB-1
   6,  34,  39,  46,  53,  58,  68,  70,  74, 131, 132
*Elset, elset=_PickedSet45, internal, instance=NARCH-1, generate
 1,  4,  1
*Elset, elset=_PickedSet45, internal, instance=RARCH-merged-1
  55, 163
*Nset, nset=_PickedSet46, internal, instance=LARCH-1, generate
   1,  145,    3
*Elset, elset=_PickedSet46, internal, instance=LARCH-1, generate
  1,  95,   2
*Nset, nset=_PickedSet47, internal, instance=LARCH-1, generate
   1,  147,    1
*Nset, nset=_PickedSet47, internal, instance=LWEB-1, generate
   1,  155,    1
*Nset, nset=_PickedSet47, internal, instance=NWEB-1, generate
   1,  165,    1
*Nset, nset=_PickedSet47, internal, instance=TARCH-merged-1, generate
   1,  267,    1
*Nset, nset=_PickedSet47, internal, instance=NARCH-1, generate
   1,  125,    1
*Nset, nset=_PickedSet47, internal, instance=TWEB-merged-1, generate
   1,  325,    1
*Nset, nset=_PickedSet47, internal, instance=RARCH-merged-1, generate
   1,  328,    1
*Elset, elset=_PickedSet47, internal, instance=LARCH-1, generate
  1,  96,   1
*Elset, elset=_PickedSet47, internal, instance=LWEB-1, generate
   1,  125,    1
*Elset, elset=_PickedSet47, internal, instance=NWEB-1, generate
   1,  135,    1
*Elset, elset=_PickedSet47, internal, instance=TARCH-merged-1, generate
   1,  176,    1
*Elset, elset=_PickedSet47, internal, instance=NARCH-1, generate
  1,  96,   1
*Elset, elset=_PickedSet47, internal, instance=TWEB-merged-1, generate
   1,  278,    1
*Elset, elset=_PickedSet47, internal, instance=RARCH-merged-1, generate
   1,  216,    1
*Nset, nset=_PickedSet62, internal, instance=LFILL-1, generate
   1,  242,    1
*Nset, nset=_PickedSet62, internal, instance=NFILL-1, generate
   1,  396,    1
*Elset, elset=_PickedSet62, internal, instance=LFILL-1, generate
   1,  140,    1
*Elset, elset=_PickedSet62, internal, instance=NFILL-1, generate
   1,  240,    1
*Nset, nset=_PickedSet63, internal, instance=LFILL-1
   1,   2,   3,   4,   5,   6,   7,   8,   9,  10,  11,  12,  13,  14,  15,  16
  17,  18,  19,  20,  21,  22,  23,  29,  30,  33,  34,  35,  36,  45,  51,  52
  55,  56,  57,  58,  67,  73,  74,  77,  78,  79,  80,  89,  95,  96,  99, 100
 101, 102, 111, 117, 118, 121, 122, 123, 124, 133, 139, 140, 143, 144, 145, 146
 155, 161, 162, 165, 166, 167, 168, 177, 183, 184, 187, 188, 189, 190, 199, 205
 206, 209, 210, 211, 212, 221, 227, 228, 231, 232, 233, 234
*Nset, nset=_PickedSet63, internal, instance=NFILL-1
   1,   2,   3,   4,   5,   6,   7,   8,   9,  10,  11,  12,  13,  14,  15,  16
  17,  18,  19,  20,  21,  22,  23,  24,  25,  26,  27,  28,  29,  30,  31,  32
  33,  34,  35,  36,  37,  43,  44,  51,  52,  53,  54,  55,  56,  57,  58,  73
  79,  80,  87,  88,  89,  90,  91,  92,  93,  94, 109, 115, 116, 123, 124, 125
 126, 127, 128, 129, 130, 145, 151, 152, 159, 160, 161, 162, 163, 164, 165, 166
 181, 187, 188, 195, 196, 197, 198, 199, 200, 201, 202, 217, 223, 224, 231, 232
 233, 234, 235, 236, 237, 238, 253, 259, 260, 267, 268, 269, 270, 271, 272, 273
 274, 289, 295, 296, 303, 304, 305, 306, 307, 308, 309, 310, 325, 331, 332, 339
 340, 341, 342, 343, 344, 345, 346, 361, 367, 368, 375, 376, 377, 378, 379, 380
 381, 382
*Elset, elset=_PickedSet63, internal, instance=LFILL-1
   1,   2,   3,   4,   5,   6,   7,   8,   9,  10,  11,  12,  13,  14,  20,  21
  23,  26,  27,  34,  35,  37,  40,  41,  48,  49,  51,  54,  55,  62,  63,  65
  68,  69,  76,  77,  79,  82,  83,  90,  91,  93,  96,  97, 104, 105, 107, 110
 111, 118, 119, 121, 124, 125, 132, 133, 135, 138, 139
*Elset, elset=_PickedSet63, internal, instance=NFILL-1
   1,   2,   3,   4,   5,   6,   7,   8,   9,  10,  11,  12,  13,  14,  15,  16
  17,  18,  19,  20,  21,  22,  23,  24,  31,  32,  33,  34,  37,  38,  40,  42
  44,  55,  56,  57,  58,  61,  62,  64,  66,  68,  79,  80,  81,  82,  85,  86
  88,  90,  92, 103, 104, 105, 106, 109, 110, 112, 114, 116, 127, 128, 129, 130
 133, 134, 136, 138, 140, 151, 152, 153, 154, 157, 158, 160, 162, 164, 175, 176
 177, 178, 181, 182, 184, 186, 188, 199, 200, 201, 202, 205, 206, 208, 210, 212
 223, 224, 225, 226, 229, 230, 232, 234, 236
*Nset, nset=_PickedSet64, internal, instance=LWEB-1, generate
   1,  155,    1
*Nset, nset=_PickedSet64, internal, instance=NWEB-1, generate
   1,  165,    1
*Nset, nset=_PickedSet64, internal, instance=TWEB-merged-1, generate
   1,  325,    1
*Elset, elset=_PickedSet64, internal, instance=LWEB-1, generate
   1,  125,    1
*Elset, elset=_PickedSet64, internal, instance=NWEB-1, generate
   1,  135,    1
*Elset, elset=_PickedSet64, internal, instance=TWEB-merged-1, generate
   1,  278,    1
*Elset, elset=__PickedSurf59_SNEG, internal, instance=LARCH-1, generate
  1,  96,   1
*Elset, elset=__PickedSurf59_SNEG, internal, instance=LWEB-1, generate
   1,  125,    1
*Elset, elset=__PickedSurf59_SNEG, internal, instance=NWEB-1, generate
   1,  135,    1
*Elset, elset=__PickedSurf59_SNEG, internal, instance=TARCH-merged-1, generate
   1,  176,    1
*Elset, elset=__PickedSurf59_SNEG, internal, instance=NARCH-1, generate
  1,  96,   1
*Elset, elset=__PickedSurf59_SNEG, internal, instance=TWEB-merged-1, generate
   1,  278,    1
*Elset, elset=__PickedSurf59_SPOS, internal, instance=RARCH-merged-1, generate
   1,  216,    1
*Surface, type=ELEMENT, name=_PickedSurf59, internal
__PickedSurf59_SNEG, SNEG
__PickedSurf59_SPOS, SPOS
*Elset, elset=__PickedSurf60_S6, internal, instance=LFILL-1
   1,   6,  15,  20,  29,  34,  43,  48,  57,  62,  71,  76,  85,  90,  99, 104
 113, 118, 127, 132
*Elset, elset=__PickedSurf60_S6, internal, instance=NFILL-1
   6,  12,  17,  22,  30,  36,  41,  46,  54,  60,  65,  70,  78,  84,  89,  94
 102, 108, 113, 118, 126, 132, 137, 142, 150, 156, 161, 166, 174, 180, 185, 190
 198, 204, 209, 214, 222, 228, 233, 238
*Elset, elset=__PickedSurf60_S5, internal, instance=LFILL-1
   1,  10,  15,  24,  29,  38,  43,  52,  57,  66,  71,  80,  85,  94,  99, 108
 113, 122, 127, 136
*Elset, elset=__PickedSurf60_S5, internal, instance=NFILL-1
   9,  22,  33,  46,  57,  70,  81,  94, 105, 118, 129, 142, 153, 166, 177, 190
 201, 214, 225, 238
*Elset, elset=__PickedSurf60_S3, internal, instance=LFILL-1
   4,   8,  11,  18,  22,  25,  32,  36,  39,  46,  50,  53,  60,  64,  67,  74
  78,  81,  88,  92,  95, 102, 106, 109, 116, 120, 123, 130, 134, 137
*Elset, elset=__PickedSurf60_S3, internal, instance=NFILL-1
   2,   4,  23,  26,  28,  47,  50,  52,  71,  74,  76,  95,  98, 100, 119, 122
 124, 143, 146, 148, 167, 170, 172, 191, 194, 196, 215, 218, 220, 239
*Elset, elset=__PickedSurf60_S4, internal, instance=LFILL-1, generate
   5,  131,   14
*Elset, elset=__PickedSurf60_S4, internal, instance=NFILL-1
  13,  15,  23,  37,  39,  47,  61,  63,  71,  85,  87,  95, 109, 111, 119, 133
 135, 143, 157, 159, 167, 181, 183, 191, 205, 207, 215, 229, 231, 239
*Surface, type=ELEMENT, name=_PickedSurf60, internal
__PickedSurf60_S6, S6
__PickedSurf60_S5, S5
__PickedSurf60_S4, S4
__PickedSurf60_S3, S3
*Surface, type=NODE, name=_PickedSet32_CNS_, internal
_PickedSet32, 1.
*Surface, type=NODE, name=_PickedSet33_CNS_, internal
_PickedSet33, 1.
*Surface, type=NODE, name=_PickedSet42_CNS_, internal
_PickedSet42, 1.
*Surface, type=NODE, name=_PickedSet43_CNS_, internal
_PickedSet43, 1.
*Surface, type=NODE, name=_PickedSet34_CNS_, internal
_PickedSet34, 1.
*Surface, type=NODE, name=_PickedSet35_CNS_, internal
_PickedSet35, 1.
*Surface, type=NODE, name=_PickedSet40_CNS_, internal
_PickedSet40, 1.
*Surface, type=NODE, name=_PickedSet41_CNS_, internal
_PickedSet41, 1.
*Surface, type=NODE, name=_PickedSet36_CNS_, internal
_PickedSet36, 1.
*Surface, type=NODE, name=_PickedSet37_CNS_, internal
_PickedSet37, 1.
*Surface, type=NODE, name=_PickedSet38_CNS_, internal
_PickedSet38, 1.
*Surface, type=NODE, name=_PickedSet39_CNS_, internal
_PickedSet39, 1.
** Constraint: LARCH-LWEB
*Tie, name=LARCH-LWEB, adjust=yes, no rotation
_PickedSet33_CNS_, _PickedSet32_CNS_
** Constraint: LTR-FILL
*Tie, name=LTR-FILL, adjust=yes
_PickedSurf60, _PickedSurf59
** Constraint: NARCH-NWEB
*Tie, name=NARCH-NWEB, adjust=yes, no rotation
_PickedSet43_CNS_, _PickedSet42_CNS_
** Constraint: RARCH-LWEB
*Tie, name=RARCH-LWEB, adjust=yes, no rotation
_PickedSet35_CNS_, _PickedSet34_CNS_
** Constraint: RARCH-NWEB
*Tie, name=RARCH-NWEB, adjust=yes, no rotation
_PickedSet41_CNS_, _PickedSet40_CNS_
** Constraint: RARCH-TWEB
*Tie, name=RARCH-TWEB, adjust=yes, no rotation
_PickedSet37_CNS_, _PickedSet36_CNS_
** Constraint: TARCH-TWEB
*Tie, name=TARCH-TWEB, adjust=yes, no rotation
_PickedSet39_CNS_, _PickedSet38_CNS_
*End Assembly
*Distribution Table, name=Ori-1-DiscOrient_Table
coord3D, coord3D
*Distribution Table, name=Ori-1-DiscOrient-1_Table
coord3D, coord3D
*Distribution Table, name=Ori-2-DiscOrient_Table
coord3D, coord3D
*Distribution Table, name=Ori-1-DiscOrient-2_Table
coord3D, coord3D
** 
** MATERIALS
** 
*Material, name=GRAVEL
*Density
 8.564e-06,
*Elastic
500., 0.2
*Material, name=RIB/ARCH
*Elastic
500., 0.2
*Material, name=WEB
*Elastic, type=LAMINA
4200.,   670.,    0.3, 380.78, 380.78, 380.78
** 
** INTERACTION PROPERTIES
** 
*Surface Interaction, name=GenInt
1.,
*Friction, slip tolerance=0.005
 0.7,
*Surface Behavior, pressure-overclosure=HARD
** 
** BOUNDARY CONDITIONS
** 
** Name: BaseSup Type: Symmetry/Antisymmetry/Encastre
*Boundary
_PickedSet44, PINNED
** Name: FillSup Type: Symmetry/Antisymmetry/Encastre
*Boundary
_PickedSet63, PINNED
** Name: VaultSymm Type: Symmetry/Antisymmetry/Encastre
*Boundary
_PickedSet45, XSYMM
** Name: WallSup Type: Symmetry/Antisymmetry/Encastre
*Boundary
_PickedSet46, ENCASTRE
** 
** INTERACTIONS
** 
** Interaction: GenInt
*Contact
*Contact Inclusions, ALL EXTERIOR
*Contact Property Assignment
 ,  , GenInt
** ----------------------------------------------------------------
** 
** STEP: STATIC
** 
*Step, name=STATIC, nlgeom=NO
*Static
0.001, 1., 1e-08, 1.
** 
** LOADS
** 
** Name: DEAD   Type: Body force
*Dload
_PickedSet64, BY, -5.5e-05
** Name: FillSW   Type: Gravity
*Dload
_PickedSet62, GRAV, 1., 0., -1., 0.
** Name: SW   Type: Body force
*Dload
_PickedSet47, BY, -5.4e-05
** 
** OUTPUT REQUESTS
** 
*Restart, write, frequency=0
** 
** FIELD OUTPUT: F-Output-1
** 
*Output, field, variable=PRESELECT
** 
** HISTORY OUTPUT: H-Output-1
** 
*Output, history, variable=PRESELECT
*End Step
